<routes>
    <flow id="west_north_straight_w0" from="-h11" to="-h13" begin="0" end="30" vehsPerHour="129" departSpeed="max" departPos="base" departLane="best" />
    <flow id="west_north_left_w0" from="-h11" to="v11" begin="0" end="30" vehsPerHour="45" departSpeed="max" departPos="base" departLane="best" />
    <flow id="west_north_right_w0" from="-h11" to="-v13" begin="0" end="30" vehsPerHour="50" departSpeed="max" departPos="base" departLane="best" />
    <personFlow id="ped_west_north_straight_w0" begin="0" end="30" personsPerHour="39" departPos="base">
        <personTrip from="-h11" to="-h13" />
    </personFlow>
    <personFlow id="ped_west_north_left_w0" begin="0" end="30" personsPerHour="11" departPos="base">
        <personTrip from="-h11" to="v11" />
    </personFlow>
    <personFlow id="ped_west_north_right_w0" begin="0" end="30" personsPerHour="5" departPos="base">
        <personTrip from="-h11" to="-v13" />
    </personFlow>
    <flow id="west_south_straight_w0" from="-h21" to="-h23" begin="0" end="30" vehsPerHour="95" departSpeed="max" departPos="base" departLane="best" />
    <flow id="west_south_left_w0" from="-h21" to="v11" begin="0" end="30" vehsPerHour="32" departSpeed="max" departPos="base" departLane="best" />
    <flow id="west_south_right_w0" from="-h21" to="-v13" begin="0" end="30" vehsPerHour="55" departSpeed="max" departPos="base" departLane="best" />
    <personFlow id="ped_west_south_straight_w0" begin="0" end="30" personsPerHour="32" departPos="base">
        <personTrip from="-h21" to="-h23" />
    </personFlow>
    <personFlow id="ped_west_south_left_w0" begin="0" end="30" personsPerHour="17" departPos="base">
        <personTrip from="-h21" to="v11" />
    </personFlow>
    <personFlow id="ped_west_south_right_w0" begin="0" end="30" personsPerHour="9" departPos="base">
        <personTrip from="-h21" to="-v13" />
    </personFlow>
    <flow id="east_north_straight_w0" from="h13" to="h11" begin="0" end="30" vehsPerHour="124" departSpeed="max" departPos="base" departLane="best" />
    <flow id="east_north_left_w0" from="h13" to="-v23" begin="0" end="30" vehsPerHour="34" departSpeed="max" departPos="base" departLane="best" />
    <flow id="east_north_right_w0" from="h13" to="v21" begin="0" end="30" vehsPerHour="47" departSpeed="max" departPos="base" departLane="best" />
    <personFlow id="ped_east_north_straight_w0" begin="0" end="30" personsPerHour="29" departPos="base">
        <personTrip from="h13" to="h11" />
    </personFlow>
    <personFlow id="ped_east_north_left_w0" begin="0" end="30" personsPerHour="15" departPos="base">
        <personTrip from="h13" to="-v23" />
    </personFlow>
    <personFlow id="ped_east_north_right_w0" begin="0" end="30" personsPerHour="6" departPos="base">
        <personTrip from="h13" to="v21" />
    </personFlow>
    <flow id="east_south_straight_w0" from="h23" to="h21" begin="0" end="30" vehsPerHour="150" departSpeed="max" departPos="base" departLane="best" />
    <flow id="east_south_left_w0" from="h23" to="-v23" begin="0" end="30" vehsPerHour="35" departSpeed="max" departPos="base" departLane="best" />
    <flow id="east_south_right_w0" from="h23" to="v21" begin="0" end="30" vehsPerHour="83" departSpeed="max" departPos="base" departLane="best" />
    <personFlow id="ped_east_south_straight_w0" begin="0" end="30" personsPerHour="39" departPos="base">
        <personTrip from="h23" to="h21" />
    </personFlow>
    <personFlow id="ped_east_south_left_w0" begin="0" end="30" personsPerHour="12" departPos="base">
        <personTrip from="h23" to="-v23" />
    </personFlow>
    <personFlow id="ped_east_south_right_w0" begin="0" end="30" personsPerHour="6" departPos="base">
        <personTrip from="h23" to="v21" />
    </personFlow>
    <flow id="north_west_straight_w0" from="-v11" to="-v13" begin="0" end="30" vehsPerHour="172" departSpeed="max" departPos="base" departLane="best" />
    <flow id="north_west_left_w0" from="-v11" to="-h13" begin="0" end="30" vehsPerHour="35" departSpeed="max" departPos="base" departLane="best" />
    <flow id="north_west_right_w0" from="-v11" to="h11" begin="0" end="30" vehsPerHour="27" departSpeed="max" departPos="base" departLane="best" />
    <personFlow id="ped_north_west_straight_w0" begin="0" end="30" personsPerHour="23" departPos="base">
        <personTrip from="-v11" to="-v13" />
    </personFlow>
    <personFlow id="ped_north_west_left_w0" begin="0" end="30" personsPerHour="12" departPos="base">
        <personTrip from="-v11" to="-h13" />
    </personFlow>
    <personFlow id="ped_north_west_right_w0" begin="0" end="30" personsPerHour="9" departPos="base">
        <personTrip from="-v11" to="h11" />
    </personFlow>
    <flow id="north_east_straight_w0" from="-v21" to="-v23" begin="0" end="30" vehsPerHour="142" departSpeed="max" departPos="base" departLane="best" />
    <flow id="north_east_left_w0" from="-v21" to="-h13" begin="0" end="30" vehsPerHour="30" departSpeed="max" departPos="base" departLane="best" />
    <flow id="north_east_right_w0" from="-v21" to="h11" begin="0" end="30" vehsPerHour="49" departSpeed="max" departPos="base" departLane="best" />
    <personFlow id="ped_north_east_straight_w0" begin="0" end="30" personsPerHour="22" departPos="base">
        <personTrip from="-v21" to="-v23" />
    </personFlow>
    <personFlow id="ped_north_east_left_w0" begin="0" end="30" personsPerHour="8" departPos="base">
        <personTrip from="-v21" to="-h13" />
    </personFlow>
    <personFlow id="ped_north_east_right_w0" begin="0" end="30" personsPerHour="9" departPos="base">
        <personTrip from="-v21" to="h11" />
    </personFlow>
    <flow id="south_west_straight_w0" from="v13" to="v11" begin="0" end="30" vehsPerHour="93" departSpeed="max" departPos="base" departLane="best" />
    <flow id="south_west_left_w0" from="v13" to="h21" begin="0" end="30" vehsPerHour="50" departSpeed="max" departPos="base" departLane="best" />
    <flow id="south_west_right_w0" from="v13" to="-h23" begin="0" end="30" vehsPerHour="64" departSpeed="max" departPos="base" departLane="best" />
    <personFlow id="ped_south_west_straight_w0" begin="0" end="30" personsPerHour="36" departPos="base">
        <personTrip from="v13" to="v11" />
    </personFlow>
    <personFlow id="ped_south_west_left_w0" begin="0" end="30" personsPerHour="10" departPos="base">
        <personTrip from="v13" to="h21" />
    </personFlow>
    <personFlow id="ped_south_west_right_w0" begin="0" end="30" personsPerHour="14" departPos="base">
        <personTrip from="v13" to="-h23" />
    </personFlow>
    <flow id="south_east_straight_w0" from="v23" to="v21" begin="0" end="30" vehsPerHour="129" departSpeed="max" departPos="base" departLane="best" />
    <flow id="south_east_left_w0" from="v23" to="h21" begin="0" end="30" vehsPerHour="25" departSpeed="max" departPos="base" departLane="best" />
    <flow id="south_east_right_w0" from="v23" to="-h23" begin="0" end="30" vehsPerHour="71" departSpeed="max" departPos="base" departLane="best" />
    <personFlow id="ped_south_east_straight_w0" begin="0" end="30" personsPerHour="31" departPos="base">
        <personTrip from="v23" to="v21" />
    </personFlow>
    <personFlow id="ped_south_east_left_w0" begin="0" end="30" personsPerHour="6" departPos="base">
        <personTrip from="v23" to="h21" />
    </personFlow>
    <personFlow id="ped_south_east_right_w0" begin="0" end="30" personsPerHour="5" departPos="base">
        <personTrip from="v23" to="-h23" />
    </personFlow>
    <flow id="west_north_straight_w1" from="-h11" to="-h13" begin="30" end="60" vehsPerHour="142" departSpeed="max" departPos="base" departLane="best" />
    <flow id="west_north_left_w1" from="-h11" to="v11" begin="30" end="60" vehsPerHour="48" departSpeed="max" departPos="base" departLane="best" />
    <flow id="west_north_right_w1" from="-h11" to="-v13" begin="30" end="60" vehsPerHour="32" departSpeed="max" departPos="base" departLane="best" />
    <personFlow id="ped_west_north_straight_w1" begin="30" end="60" personsPerHour="35" departPos="base">
        <personTrip from="-h11" to="-h13" />
    </personFlow>
    <personFlow id="ped_west_north_left_w1" begin="30" end="60" personsPerHour="13" departPos="base">
        <personTrip from="-h11" to="v11" />
    </personFlow>
    <personFlow id="ped_west_north_right_w1" begin="30" end="60" personsPerHour="10" departPos="base">
        <personTrip from="-h11" to="-v13" />
    </personFlow>
    <flow id="west_south_straight_w1" from="-h21" to="-h23" begin="30" end="60" vehsPerHour="139" departSpeed="max" departPos="base" departLane="best" />
    <flow id="west_south_left_w1" from="-h21" to="v11" begin="30" end="60" vehsPerHour="57" departSpeed="max" departPos="base" departLane="best" />
    <flow id="west_south_right_w1" from="-h21" to="-v13" begin="30" end="60" vehsPerHour="42" departSpeed="max" departPos="base" departLane="best" />
    <personFlow id="ped_west_south_straight_w1" begin="30" end="60" personsPerHour="23" departPos="base">
        <personTrip from="-h21" to="-h23" />
    </personFlow>
    <personFlow id="ped_west_south_left_w1" begin="30" end="60" personsPerHour="11" departPos="base">
        <personTrip from="-h21" to="v11" />
    </personFlow>
    <personFlow id="ped_west_south_right_w1" begin="30" end="60" personsPerHour="10" departPos="base">
        <personTrip from="-h21" to="-v13" />
    </personFlow>
    <flow id="east_north_straight_w1" from="h13" to="h11" begin="30" end="60" vehsPerHour="121" departSpeed="max" departPos="base" departLane="best" />
    <flow id="east_north_left_w1" from="h13" to="-v23" begin="30" end="60" vehsPerHour="83" departSpeed="max" departPos="base" departLane="best" />
    <flow id="east_north_right_w1" from="h13" to="v21" begin="30" end="60" vehsPerHour="84" departSpeed="max" departPos="base" departLane="best" />
    <personFlow id="ped_east_north_straight_w1" begin="30" end="60" personsPerHour="29" departPos="base">
        <personTrip from="h13" to="h11" />
    </personFlow>
    <personFlow id="ped_east_north_left_w1" begin="30" end="60" personsPerHour="10" departPos="base">
        <personTrip from="h13" to="-v23" />
    </personFlow>
    <personFlow id="ped_east_north_right_w1" begin="30" end="60" personsPerHour="16" departPos="base">
        <personTrip from="h13" to="v21" />
    </personFlow>
    <flow id="east_south_straight_w1" from="h23" to="h21" begin="30" end="60" vehsPerHour="133" departSpeed="max" departPos="base" departLane="best" />
    <flow id="east_south_left_w1" from="h23" to="-v23" begin="30" end="60" vehsPerHour="52" departSpeed="max" departPos="base" departLane="best" />
    <flow id="east_south_right_w1" from="h23" to="v21" begin="30" end="60" vehsPerHour="60" departSpeed="max" departPos="base" departLane="best" />
    <personFlow id="ped_east_south_straight_w1" begin="30" end="60" personsPerHour="21" departPos="base">
        <personTrip from="h23" to="h21" />
    </personFlow>
    <personFlow id="ped_east_south_left_w1" begin="30" end="60" personsPerHour="11" departPos="base">
        <personTrip from="h23" to="-v23" />
    </personFlow>
    <personFlow id="ped_east_south_right_w1" begin="30" end="60" personsPerHour="11" departPos="base">
        <personTrip from="h23" to="v21" />
    </personFlow>
    <flow id="north_west_straight_w1" from="-v11" to="-v13" begin="30" end="60" vehsPerHour="117" departSpeed="max" departPos="base" departLane="best" />
    <flow id="north_west_left_w1" from="-v11" to="-h13" begin="30" end="60" vehsPerHour="68" departSpeed="max" departPos="base" departLane="best" />
    <flow id="north_west_right_w1" from="-v11" to="h11" begin="30" end="60" vehsPerHour="56" departSpeed="max" departPos="base" departLane="best" />
    <personFlow id="ped_north_west_straight_w1" begin="30" end="60" personsPerHour="35" departPos="base">
        <personTrip from="-v11" to="-v13" />
    </personFlow>
    <personFlow id="ped_north_west_left_w1" begin="30" end="60" personsPerHour="10" departPos="base">
        <personTrip from="-v11" to="-h13" />
    </personFlow>
    <personFlow id="ped_north_west_right_w1" begin="30" end="60" personsPerHour="15" departPos="base">
        <personTrip from="-v11" to="h11" />
    </personFlow>
    <flow id="north_east_straight_w1" from="-v21" to="-v23" begin="30" end="60" vehsPerHour="137" departSpeed="max" departPos="base" departLane="best" />
    <flow id="north_east_left_w1" from="-v21" to="-h13" begin="30" end="60" vehsPerHour="59" departSpeed="max" departPos="base" departLane="best" />
    <flow id="north_east_right_w1" from="-v21" to="h11" begin="30" end="60" vehsPerHour="38" departSpeed="max" departPos="base" departLane="best" />
    <personFlow id="ped_north_east_straight_w1" begin="30" end="60" personsPerHour="37" departPos="base">
        <personTrip from="-v21" to="-v23" />
    </personFlow>
    <personFlow id="ped_north_east_left_w1" begin="30" end="60" personsPerHour="7" departPos="base">
        <personTrip from="-v21" to="-h13" />
    </personFlow>
    <personFlow id="ped_north_east_right_w1" begin="30" end="60" personsPerHour="5" departPos="base">
        <personTrip from="-v21" to="h11" />
    </personFlow>
    <flow id="south_west_straight_w1" from="v13" to="v11" begin="30" end="60" vehsPerHour="164" departSpeed="max" departPos="base" departLane="best" />
    <flow id="south_west_left_w1" from="v13" to="h21" begin="30" end="60" vehsPerHour="31" departSpeed="max" departPos="base" departLane="best" />
    <flow id="south_west_right_w1" from="v13" to="-h23" begin="30" end="60" vehsPerHour="46" departSpeed="max" departPos="base" departLane="best" />
    <personFlow id="ped_south_west_straight_w1" begin="30" end="60" personsPerHour="26" departPos="base">
        <personTrip from="v13" to="v11" />
    </personFlow>
    <personFlow id="ped_south_west_left_w1" begin="30" end="60" personsPerHour="13" departPos="base">
        <personTrip from="v13" to="h21" />
    </personFlow>
    <personFlow id="ped_south_west_right_w1" begin="30" end="60" personsPerHour="8" departPos="base">
        <personTrip from="v13" to="-h23" />
    </personFlow>
    <flow id="south_east_straight_w1" from="v23" to="v21" begin="30" end="60" vehsPerHour="122" departSpeed="max" departPos="base" departLane="best" />
    <flow id="south_east_left_w1" from="v23" to="h21" begin="30" end="60" vehsPerHour="47" departSpeed="max" departPos="base" departLane="best" />
    <flow id="south_east_right_w1" from="v23" to="-h23" begin="30" end="60" vehsPerHour="31" departSpeed="max" departPos="base" departLane="best" />
    <personFlow id="ped_south_east_straight_w1" begin="30" end="60" personsPerHour="25" departPos="base">
        <personTrip from="v23" to="v21" />
    </personFlow>
    <personFlow id="ped_south_east_left_w1" begin="30" end="60" personsPerHour="5" departPos="base">
        <personTrip from="v23" to="h21" />
    </personFlow>
    <personFlow id="ped_south_east_right_w1" begin="30" end="60" personsPerHour="20" departPos="base">
        <personTrip from="v23" to="-h23" />
    </personFlow>
</routes>