<?xml version="1.0" encoding="UTF-8"?>

<!-- generated on 2026-06-15T20:29:33.946385+01:00 by Eclipse SUMO netconvert 1.26.0
<netconvertConfiguration xmlns:xsi="http://www.w3.org/2001/XMLSchema-instance" xsi:noNamespaceSchemaLocation="http://sumo.dlr.de/xsd/netconvertConfiguration.xsd">

    <input>
        <node-files value="/home/dado/lol/nets/2x2/plain/2x2.nod.xml"/>
        <edge-files value="/home/dado/lol/nets/2x2/plain/2x2.edg.xml"/>
        <connection-files value="/home/dado/lol/nets/2x2/plain/2x2.con.xml"/>
        <tllogic-files value="/home/dado/lol/nets/2x2/plain/2x2.tll.xml"/>
    </input>

    <output>
        <output-file value="/home/dado/lol/nets/2x2/2x2.net.xml"/>
    </output>

    <processing>
        <offset.disable-normalization value="true"/>
    </processing>

    <junctions>
        <no-turnarounds value="true"/>
    </junctions>

</netconvertConfiguration>
-->

<net version="1.20" junctionCornerDetail="5" limitTurnSpeed="5.50" xmlns:xsi="http://www.w3.org/2001/XMLSchema-instance" xsi:noNamespaceSchemaLocation="http://sumo.dlr.de/xsd/net_file.xsd">

    <location netOffset="-1850.00,-2900.00" convBoundary="150.00,300.00,600.00,750.00" origBoundary="1850.00,2900.00,2600.00,3650.00" projParameter="!"/>

    <edge id=":1_0" function="internal">
        <lane id=":1_0_0" index="0" speed="6.51" length="9.03" shape="292.00,613.60 291.65,611.15 290.60,609.40 288.85,608.35 286.40,608.00"/>
    </edge>
    <edge id=":1_1" function="internal">
        <lane id=":1_1_0" index="0" speed="13.89" length="27.20" shape="295.20,613.60 295.20,586.40"/>
    </edge>
    <edge id=":1_2" function="internal">
        <lane id=":1_2_0" index="0" speed="10.36" length="24.51" shape="298.40,613.60 299.35,606.95 302.20,602.20 306.95,599.35 313.60,598.40"/>
    </edge>
    <edge id=":1_3" function="internal">
        <lane id=":1_3_0" index="0" speed="6.51" length="9.03" shape="313.60,608.00 311.15,608.35 309.40,609.40 308.35,611.15 308.00,613.60"/>
    </edge>
    <edge id=":1_4" function="internal">
        <lane id=":1_4_0" index="0" speed="13.89" length="27.20" shape="313.60,604.80 286.40,604.80"/>
    </edge>
    <edge id=":1_5" function="internal">
        <lane id=":1_5_0" index="0" speed="10.36" length="24.51" shape="313.60,601.60 306.95,600.65 302.20,597.80 299.35,593.05 298.40,586.40"/>
    </edge>
    <edge id=":1_6" function="internal">
        <lane id=":1_6_0" index="0" speed="6.51" length="9.03" shape="308.00,586.40 308.35,588.85 309.40,590.60 311.15,591.65 313.60,592.00"/>
    </edge>
    <edge id=":1_7" function="internal">
        <lane id=":1_7_0" index="0" speed="13.89" length="27.20" shape="304.80,586.40 304.80,613.60"/>
    </edge>
    <edge id=":1_8" function="internal">
        <lane id=":1_8_0" index="0" speed="10.36" length="24.51" shape="301.60,586.40 300.65,593.05 297.80,597.80 293.05,600.65 286.40,601.60"/>
    </edge>
    <edge id=":1_9" function="internal">
        <lane id=":1_9_0" index="0" speed="6.51" length="9.03" shape="286.40,592.00 288.85,591.65 290.60,590.60 291.65,588.85 292.00,586.40"/>
    </edge>
    <edge id=":1_10" function="internal">
        <lane id=":1_10_0" index="0" speed="13.89" length="27.20" shape="286.40,595.20 313.60,595.20"/>
    </edge>
    <edge id=":1_11" function="internal">
        <lane id=":1_11_0" index="0" speed="10.36" length="24.51" shape="286.40,598.40 293.05,599.35 297.80,602.20 300.65,606.95 301.60,613.60"/>
    </edge>
    <edge id=":2_0" function="internal">
        <lane id=":2_0_0" index="0" speed="6.51" length="9.03" shape="442.00,613.60 441.65,611.15 440.60,609.40 438.85,608.35 436.40,608.00"/>
    </edge>
    <edge id=":2_1" function="internal">
        <lane id=":2_1_0" index="0" speed="13.89" length="27.20" shape="445.20,613.60 445.20,586.40"/>
    </edge>
    <edge id=":2_2" function="internal">
        <lane id=":2_2_0" index="0" speed="10.36" length="24.51" shape="448.40,613.60 449.35,606.95 452.20,602.20 456.95,599.35 463.60,598.40"/>
    </edge>
    <edge id=":2_3" function="internal">
        <lane id=":2_3_0" index="0" speed="6.51" length="9.03" shape="463.60,608.00 461.15,608.35 459.40,609.40 458.35,611.15 458.00,613.60"/>
    </edge>
    <edge id=":2_4" function="internal">
        <lane id=":2_4_0" index="0" speed="13.89" length="27.20" shape="463.60,604.80 436.40,604.80"/>
    </edge>
    <edge id=":2_5" function="internal">
        <lane id=":2_5_0" index="0" speed="10.36" length="24.51" shape="463.60,601.60 456.95,600.65 452.20,597.80 449.35,593.05 448.40,586.40"/>
    </edge>
    <edge id=":2_6" function="internal">
        <lane id=":2_6_0" index="0" speed="6.51" length="9.03" shape="458.00,586.40 458.35,588.85 459.40,590.60 461.15,591.65 463.60,592.00"/>
    </edge>
    <edge id=":2_7" function="internal">
        <lane id=":2_7_0" index="0" speed="13.89" length="27.20" shape="454.80,586.40 454.80,613.60"/>
    </edge>
    <edge id=":2_8" function="internal">
        <lane id=":2_8_0" index="0" speed="10.36" length="24.51" shape="451.60,586.40 450.65,593.05 447.80,597.80 443.05,600.65 436.40,601.60"/>
    </edge>
    <edge id=":2_9" function="internal">
        <lane id=":2_9_0" index="0" speed="6.51" length="9.03" shape="436.40,592.00 438.85,591.65 440.60,590.60 441.65,588.85 442.00,586.40"/>
    </edge>
    <edge id=":2_10" function="internal">
        <lane id=":2_10_0" index="0" speed="13.89" length="27.20" shape="436.40,595.20 463.60,595.20"/>
    </edge>
    <edge id=":2_11" function="internal">
        <lane id=":2_11_0" index="0" speed="10.36" length="24.51" shape="436.40,598.40 443.05,599.35 447.80,602.20 450.65,606.95 451.60,613.60"/>
    </edge>
    <edge id=":5_0" function="internal">
        <lane id=":5_0_0" index="0" speed="6.51" length="9.03" shape="292.00,463.60 291.65,461.15 290.60,459.40 288.85,458.35 286.40,458.00"/>
    </edge>
    <edge id=":5_1" function="internal">
        <lane id=":5_1_0" index="0" speed="13.89" length="27.20" shape="295.20,463.60 295.20,436.40"/>
    </edge>
    <edge id=":5_2" function="internal">
        <lane id=":5_2_0" index="0" speed="10.36" length="24.51" shape="298.40,463.60 299.35,456.95 302.20,452.20 306.95,449.35 313.60,448.40"/>
    </edge>
    <edge id=":5_3" function="internal">
        <lane id=":5_3_0" index="0" speed="6.51" length="9.03" shape="313.60,458.00 311.15,458.35 309.40,459.40 308.35,461.15 308.00,463.60"/>
    </edge>
    <edge id=":5_4" function="internal">
        <lane id=":5_4_0" index="0" speed="13.89" length="27.20" shape="313.60,454.80 286.40,454.80"/>
    </edge>
    <edge id=":5_5" function="internal">
        <lane id=":5_5_0" index="0" speed="10.36" length="24.51" shape="313.60,451.60 306.95,450.65 302.20,447.80 299.35,443.05 298.40,436.40"/>
    </edge>
    <edge id=":5_6" function="internal">
        <lane id=":5_6_0" index="0" speed="6.51" length="9.03" shape="308.00,436.40 308.35,438.85 309.40,440.60 311.15,441.65 313.60,442.00"/>
    </edge>
    <edge id=":5_7" function="internal">
        <lane id=":5_7_0" index="0" speed="13.89" length="27.20" shape="304.80,436.40 304.80,463.60"/>
    </edge>
    <edge id=":5_8" function="internal">
        <lane id=":5_8_0" index="0" speed="10.36" length="24.51" shape="301.60,436.40 300.65,443.05 297.80,447.80 293.05,450.65 286.40,451.60"/>
    </edge>
    <edge id=":5_9" function="internal">
        <lane id=":5_9_0" index="0" speed="6.51" length="9.03" shape="286.40,442.00 288.85,441.65 290.60,440.60 291.65,438.85 292.00,436.40"/>
    </edge>
    <edge id=":5_10" function="internal">
        <lane id=":5_10_0" index="0" speed="13.89" length="27.20" shape="286.40,445.20 313.60,445.20"/>
    </edge>
    <edge id=":5_11" function="internal">
        <lane id=":5_11_0" index="0" speed="10.36" length="24.51" shape="286.40,448.40 293.05,449.35 297.80,452.20 300.65,456.95 301.60,463.60"/>
    </edge>
    <edge id=":6_0" function="internal">
        <lane id=":6_0_0" index="0" speed="6.51" length="9.03" shape="442.00,463.60 441.65,461.15 440.60,459.40 438.85,458.35 436.40,458.00"/>
    </edge>
    <edge id=":6_1" function="internal">
        <lane id=":6_1_0" index="0" speed="13.89" length="27.20" shape="445.20,463.60 445.20,436.40"/>
    </edge>
    <edge id=":6_2" function="internal">
        <lane id=":6_2_0" index="0" speed="10.36" length="24.51" shape="448.40,463.60 449.35,456.95 452.20,452.20 456.95,449.35 463.60,448.40"/>
    </edge>
    <edge id=":6_3" function="internal">
        <lane id=":6_3_0" index="0" speed="6.51" length="9.03" shape="463.60,458.00 461.15,458.35 459.40,459.40 458.35,461.15 458.00,463.60"/>
    </edge>
    <edge id=":6_4" function="internal">
        <lane id=":6_4_0" index="0" speed="13.89" length="27.20" shape="463.60,454.80 436.40,454.80"/>
    </edge>
    <edge id=":6_5" function="internal">
        <lane id=":6_5_0" index="0" speed="10.36" length="24.51" shape="463.60,451.60 456.95,450.65 452.20,447.80 449.35,443.05 448.40,436.40"/>
    </edge>
    <edge id=":6_6" function="internal">
        <lane id=":6_6_0" index="0" speed="6.51" length="9.03" shape="458.00,436.40 458.35,438.85 459.40,440.60 461.15,441.65 463.60,442.00"/>
    </edge>
    <edge id=":6_7" function="internal">
        <lane id=":6_7_0" index="0" speed="13.89" length="27.20" shape="454.80,436.40 454.80,463.60"/>
    </edge>
    <edge id=":6_8" function="internal">
        <lane id=":6_8_0" index="0" speed="10.36" length="24.51" shape="451.60,436.40 450.65,443.05 447.80,447.80 443.05,450.65 436.40,451.60"/>
    </edge>
    <edge id=":6_9" function="internal">
        <lane id=":6_9_0" index="0" speed="6.51" length="9.03" shape="436.40,442.00 438.85,441.65 440.60,440.60 441.65,438.85 442.00,436.40"/>
    </edge>
    <edge id=":6_10" function="internal">
        <lane id=":6_10_0" index="0" speed="13.89" length="27.20" shape="436.40,445.20 463.60,445.20"/>
    </edge>
    <edge id=":6_11" function="internal">
        <lane id=":6_11_0" index="0" speed="10.36" length="24.51" shape="436.40,448.40 443.05,449.35 447.80,452.20 450.65,456.95 451.60,463.60"/>
    </edge>

    <edge id="-h11" from="0" to="1" priority="1">
        <lane id="-h11_0" index="0" speed="13.89" length="136.40" shape="150.00,592.00 286.40,592.00"/>
        <lane id="-h11_1" index="1" speed="13.89" length="136.40" shape="150.00,595.20 286.40,595.20"/>
        <lane id="-h11_2" index="2" speed="13.89" length="136.40" shape="150.00,598.40 286.40,598.40"/>
    </edge>
    <edge id="-h12" from="1" to="2" priority="1">
        <lane id="-h12_0" index="0" speed="13.89" length="122.80" shape="313.60,592.00 436.40,592.00"/>
        <lane id="-h12_1" index="1" speed="13.89" length="122.80" shape="313.60,595.20 436.40,595.20"/>
        <lane id="-h12_2" index="2" speed="13.89" length="122.80" shape="313.60,598.40 436.40,598.40"/>
    </edge>
    <edge id="-h13" from="2" to="3" priority="1">
        <lane id="-h13_0" index="0" speed="13.89" length="136.40" shape="463.60,592.00 600.00,592.00"/>
        <lane id="-h13_1" index="1" speed="13.89" length="136.40" shape="463.60,595.20 600.00,595.20"/>
        <lane id="-h13_2" index="2" speed="13.89" length="136.40" shape="463.60,598.40 600.00,598.40"/>
    </edge>
    <edge id="-h21" from="4" to="5" priority="1">
        <lane id="-h21_0" index="0" speed="13.89" length="136.40" shape="150.00,442.00 286.40,442.00"/>
        <lane id="-h21_1" index="1" speed="13.89" length="136.40" shape="150.00,445.20 286.40,445.20"/>
        <lane id="-h21_2" index="2" speed="13.89" length="136.40" shape="150.00,448.40 286.40,448.40"/>
    </edge>
    <edge id="-h22" from="5" to="6" priority="1">
        <lane id="-h22_0" index="0" speed="13.89" length="122.80" shape="313.60,442.00 436.40,442.00"/>
        <lane id="-h22_1" index="1" speed="13.89" length="122.80" shape="313.60,445.20 436.40,445.20"/>
        <lane id="-h22_2" index="2" speed="13.89" length="122.80" shape="313.60,448.40 436.40,448.40"/>
    </edge>
    <edge id="-h23" from="6" to="7" priority="1">
        <lane id="-h23_0" index="0" speed="13.89" length="136.40" shape="463.60,442.00 600.00,442.00"/>
        <lane id="-h23_1" index="1" speed="13.89" length="136.40" shape="463.60,445.20 600.00,445.20"/>
        <lane id="-h23_2" index="2" speed="13.89" length="136.40" shape="463.60,448.40 600.00,448.40"/>
    </edge>
    <edge id="-v11" from="17" to="1" priority="1">
        <lane id="-v11_0" index="0" speed="13.89" length="136.40" shape="292.00,750.00 292.00,613.60"/>
        <lane id="-v11_1" index="1" speed="13.89" length="136.40" shape="295.20,750.00 295.20,613.60"/>
        <lane id="-v11_2" index="2" speed="13.89" length="136.40" shape="298.40,750.00 298.40,613.60"/>
    </edge>
    <edge id="-v12" from="1" to="5" priority="1">
        <lane id="-v12_0" index="0" speed="13.89" length="122.80" shape="292.00,586.40 292.00,463.60"/>
        <lane id="-v12_1" index="1" speed="13.89" length="122.80" shape="295.20,586.40 295.20,463.60"/>
        <lane id="-v12_2" index="2" speed="13.89" length="122.80" shape="298.40,586.40 298.40,463.60"/>
    </edge>
    <edge id="-v13" from="5" to="9" priority="1">
        <lane id="-v13_0" index="0" speed="13.89" length="136.40" shape="292.00,436.40 292.00,300.00"/>
        <lane id="-v13_1" index="1" speed="13.89" length="136.40" shape="295.20,436.40 295.20,300.00"/>
        <lane id="-v13_2" index="2" speed="13.89" length="136.40" shape="298.40,436.40 298.40,300.00"/>
    </edge>
    <edge id="-v21" from="18" to="2" priority="1">
        <lane id="-v21_0" index="0" speed="13.89" length="136.40" shape="442.00,750.00 442.00,613.60"/>
        <lane id="-v21_1" index="1" speed="13.89" length="136.40" shape="445.20,750.00 445.20,613.60"/>
        <lane id="-v21_2" index="2" speed="13.89" length="136.40" shape="448.40,750.00 448.40,613.60"/>
    </edge>
    <edge id="-v22" from="2" to="6" priority="1">
        <lane id="-v22_0" index="0" speed="13.89" length="122.80" shape="442.00,586.40 442.00,463.60"/>
        <lane id="-v22_1" index="1" speed="13.89" length="122.80" shape="445.20,586.40 445.20,463.60"/>
        <lane id="-v22_2" index="2" speed="13.89" length="122.80" shape="448.40,586.40 448.40,463.60"/>
    </edge>
    <edge id="-v23" from="6" to="10" priority="1">
        <lane id="-v23_0" index="0" speed="13.89" length="136.40" shape="442.00,436.40 442.00,300.00"/>
        <lane id="-v23_1" index="1" speed="13.89" length="136.40" shape="445.20,436.40 445.20,300.00"/>
        <lane id="-v23_2" index="2" speed="13.89" length="136.40" shape="448.40,436.40 448.40,300.00"/>
    </edge>
    <edge id="h11" from="1" to="0" priority="1">
        <lane id="h11_0" index="0" speed="13.89" length="136.40" shape="286.40,608.00 150.00,608.00"/>
        <lane id="h11_1" index="1" speed="13.89" length="136.40" shape="286.40,604.80 150.00,604.80"/>
        <lane id="h11_2" index="2" speed="13.89" length="136.40" shape="286.40,601.60 150.00,601.60"/>
    </edge>
    <edge id="h12" from="2" to="1" priority="1">
        <lane id="h12_0" index="0" speed="13.89" length="122.80" shape="436.40,608.00 313.60,608.00"/>
        <lane id="h12_1" index="1" speed="13.89" length="122.80" shape="436.40,604.80 313.60,604.80"/>
        <lane id="h12_2" index="2" speed="13.89" length="122.80" shape="436.40,601.60 313.60,601.60"/>
    </edge>
    <edge id="h13" from="3" to="2" priority="1">
        <lane id="h13_0" index="0" speed="13.89" length="136.40" shape="600.00,608.00 463.60,608.00"/>
        <lane id="h13_1" index="1" speed="13.89" length="136.40" shape="600.00,604.80 463.60,604.80"/>
        <lane id="h13_2" index="2" speed="13.89" length="136.40" shape="600.00,601.60 463.60,601.60"/>
    </edge>
    <edge id="h21" from="5" to="4" priority="1">
        <lane id="h21_0" index="0" speed="13.89" length="136.40" shape="286.40,458.00 150.00,458.00"/>
        <lane id="h21_1" index="1" speed="13.89" length="136.40" shape="286.40,454.80 150.00,454.80"/>
        <lane id="h21_2" index="2" speed="13.89" length="136.40" shape="286.40,451.60 150.00,451.60"/>
    </edge>
    <edge id="h22" from="6" to="5" priority="1">
        <lane id="h22_0" index="0" speed="13.89" length="122.80" shape="436.40,458.00 313.60,458.00"/>
        <lane id="h22_1" index="1" speed="13.89" length="122.80" shape="436.40,454.80 313.60,454.80"/>
        <lane id="h22_2" index="2" speed="13.89" length="122.80" shape="436.40,451.60 313.60,451.60"/>
    </edge>
    <edge id="h23" from="7" to="6" priority="1">
        <lane id="h23_0" index="0" speed="13.89" length="136.40" shape="600.00,458.00 463.60,458.00"/>
        <lane id="h23_1" index="1" speed="13.89" length="136.40" shape="600.00,454.80 463.60,454.80"/>
        <lane id="h23_2" index="2" speed="13.89" length="136.40" shape="600.00,451.60 463.60,451.60"/>
    </edge>
    <edge id="v11" from="1" to="17" priority="1">
        <lane id="v11_0" index="0" speed="13.89" length="136.40" shape="308.00,613.60 308.00,750.00"/>
        <lane id="v11_1" index="1" speed="13.89" length="136.40" shape="304.80,613.60 304.80,750.00"/>
        <lane id="v11_2" index="2" speed="13.89" length="136.40" shape="301.60,613.60 301.60,750.00"/>
    </edge>
    <edge id="v12" from="5" to="1" priority="1">
        <lane id="v12_0" index="0" speed="13.89" length="122.80" shape="308.00,463.60 308.00,586.40"/>
        <lane id="v12_1" index="1" speed="13.89" length="122.80" shape="304.80,463.60 304.80,586.40"/>
        <lane id="v12_2" index="2" speed="13.89" length="122.80" shape="301.60,463.60 301.60,586.40"/>
    </edge>
    <edge id="v13" from="9" to="5" priority="1">
        <lane id="v13_0" index="0" speed="13.89" length="136.40" shape="308.00,300.00 308.00,436.40"/>
        <lane id="v13_1" index="1" speed="13.89" length="136.40" shape="304.80,300.00 304.80,436.40"/>
        <lane id="v13_2" index="2" speed="13.89" length="136.40" shape="301.60,300.00 301.60,436.40"/>
    </edge>
    <edge id="v21" from="2" to="18" priority="1">
        <lane id="v21_0" index="0" speed="13.89" length="136.40" shape="458.00,613.60 458.00,750.00"/>
        <lane id="v21_1" index="1" speed="13.89" length="136.40" shape="454.80,613.60 454.80,750.00"/>
        <lane id="v21_2" index="2" speed="13.89" length="136.40" shape="451.60,613.60 451.60,750.00"/>
    </edge>
    <edge id="v22" from="6" to="2" priority="1">
        <lane id="v22_0" index="0" speed="13.89" length="122.80" shape="458.00,463.60 458.00,586.40"/>
        <lane id="v22_1" index="1" speed="13.89" length="122.80" shape="454.80,463.60 454.80,586.40"/>
        <lane id="v22_2" index="2" speed="13.89" length="122.80" shape="451.60,463.60 451.60,586.40"/>
    </edge>
    <edge id="v23" from="10" to="6" priority="1">
        <lane id="v23_0" index="0" speed="13.89" length="136.40" shape="458.00,300.00 458.00,436.40"/>
        <lane id="v23_1" index="1" speed="13.89" length="136.40" shape="454.80,300.00 454.80,436.40"/>
        <lane id="v23_2" index="2" speed="13.89" length="136.40" shape="451.60,300.00 451.60,436.40"/>
    </edge>

    <tlLogic id="1" type="static" programID="0" offset="0">
        <phase duration="33" state="GGrrrrGGrrrr"/>
        <phase duration="3"  state="yyrrrryyrrrr"/>
        <phase duration="6"  state="rrGrrrrrGrrr"/>
        <phase duration="3"  state="rryrrrrryrrr"/>
        <phase duration="33" state="rrrGGrrrrGGr"/>
        <phase duration="3"  state="rrryyrrrryyr"/>
        <phase duration="6"  state="rrrrrGrrrrrG"/>
        <phase duration="3"  state="rrrrryrrrrry"/>
    </tlLogic>
    <tlLogic id="2" type="static" programID="0" offset="0">
        <phase duration="33" state="GGrrrrGGrrrr"/>
        <phase duration="3"  state="yyrrrryyrrrr"/>
        <phase duration="6"  state="rrGrrrrrGrrr"/>
        <phase duration="3"  state="rryrrrrryrrr"/>
        <phase duration="33" state="rrrGGrrrrGGr"/>
        <phase duration="3"  state="rrryyrrrryyr"/>
        <phase duration="6"  state="rrrrrGrrrrrG"/>
        <phase duration="3"  state="rrrrryrrrrry"/>
    </tlLogic>
    <tlLogic id="5" type="static" programID="0" offset="0">
        <phase duration="33" state="GGrrrrGGrrrr"/>
        <phase duration="3"  state="yyrrrryyrrrr"/>
        <phase duration="6"  state="rrGrrrrrGrrr"/>
        <phase duration="3"  state="rryrrrrryrrr"/>
        <phase duration="33" state="rrrGGrrrrGGr"/>
        <phase duration="3"  state="rrryyrrrryyr"/>
        <phase duration="6"  state="rrrrrGrrrrrG"/>
        <phase duration="3"  state="rrrrryrrrrry"/>
    </tlLogic>
    <tlLogic id="6" type="static" programID="0" offset="0">
        <phase duration="33" state="GGrrrrGGrrrr"/>
        <phase duration="3"  state="yyrrrryyrrrr"/>
        <phase duration="6"  state="rrGrrrrrGrrr"/>
        <phase duration="3"  state="rryrrrrryrrr"/>
        <phase duration="33" state="rrrGGrrrrGGr"/>
        <phase duration="3"  state="rrryyrrrryyr"/>
        <phase duration="6"  state="rrrrrGrrrrrG"/>
        <phase duration="3"  state="rrrrryrrrrry"/>
    </tlLogic>

    <junction id="0" type="dead_end" x="150.00" y="600.00" incLanes="h11_0 h11_1 h11_2" intLanes="" shape="150.00,600.00 150.00,609.60 150.00,600.00"/>
    <junction id="1" type="traffic_light" x="300.00" y="600.00" incLanes="-v11_0 -v11_1 -v11_2 h12_0 h12_1 h12_2 v12_0 v12_1 v12_2 -h11_0 -h11_1 -h11_2" intLanes=":1_0_0 :1_1_0 :1_2_0 :1_3_0 :1_4_0 :1_5_0 :1_6_0 :1_7_0 :1_8_0 :1_9_0 :1_10_0 :1_11_0" shape="290.40,613.60 309.60,613.60 310.04,611.38 310.60,610.60 311.38,610.04 312.38,609.71 313.60,609.60 313.60,590.40 311.38,589.96 310.60,589.40 310.04,588.62 309.71,587.62 309.60,586.40 290.40,586.40 289.96,588.62 289.40,589.40 288.62,589.96 287.62,590.29 286.40,590.40 286.40,609.60 288.62,610.04 289.40,610.60 289.96,611.38 290.29,612.38">
        <request index="0"  response="000000000000" foes="000000000000" cont="0"/>
        <request index="1"  response="000000000000" foes="110100010000" cont="0"/>
        <request index="2"  response="000010000000" foes="100010110000" cont="0"/>
        <request index="3"  response="000000000000" foes="000000000000" cont="0"/>
        <request index="4"  response="000010000110" foes="100010000110" cont="0"/>
        <request index="5"  response="010110000100" foes="010110000100" cont="0"/>
        <request index="6"  response="000000000000" foes="000000000000" cont="0"/>
        <request index="7"  response="000000000000" foes="010000110100" cont="0"/>
        <request index="8"  response="000000000010" foes="110000100010" cont="0"/>
        <request index="9"  response="000000000000" foes="000000000000" cont="0"/>
        <request index="10" response="000110000010" foes="000110100010" cont="0"/>
        <request index="11" response="000100010110" foes="000100010110" cont="0"/>
    </junction>
    <junction id="10" type="dead_end" x="450.00" y="300.00" incLanes="-v23_0 -v23_1 -v23_2" intLanes="" shape="450.00,300.00 440.40,300.00 450.00,300.00"/>
    <junction id="17" type="dead_end" x="300.00" y="750.00" incLanes="v11_0 v11_1 v11_2" intLanes="" shape="300.00,750.00 309.60,750.00 300.00,750.00"/>
    <junction id="18" type="dead_end" x="450.00" y="750.00" incLanes="v21_0 v21_1 v21_2" intLanes="" shape="450.00,750.00 459.60,750.00 450.00,750.00"/>
    <junction id="2" type="traffic_light" x="450.00" y="600.00" incLanes="-v21_0 -v21_1 -v21_2 h13_0 h13_1 h13_2 v22_0 v22_1 v22_2 -h12_0 -h12_1 -h12_2" intLanes=":2_0_0 :2_1_0 :2_2_0 :2_3_0 :2_4_0 :2_5_0 :2_6_0 :2_7_0 :2_8_0 :2_9_0 :2_10_0 :2_11_0" shape="440.40,613.60 459.60,613.60 460.04,611.38 460.60,610.60 461.38,610.04 462.38,609.71 463.60,609.60 463.60,590.40 461.38,589.96 460.60,589.40 460.04,588.62 459.71,587.62 459.60,586.40 440.40,586.40 439.96,588.62 439.40,589.40 438.62,589.96 437.62,590.29 436.40,590.40 436.40,609.60 438.62,610.04 439.40,610.60 439.96,611.38 440.29,612.38">
        <request index="0"  response="000000000000" foes="000000000000" cont="0"/>
        <request index="1"  response="000000000000" foes="110100010000" cont="0"/>
        <request index="2"  response="000010000000" foes="100010110000" cont="0"/>
        <request index="3"  response="000000000000" foes="000000000000" cont="0"/>
        <request index="4"  response="000010000110" foes="100010000110" cont="0"/>
        <request index="5"  response="010110000100" foes="010110000100" cont="0"/>
        <request index="6"  response="000000000000" foes="000000000000" cont="0"/>
        <request index="7"  response="000000000000" foes="010000110100" cont="0"/>
        <request index="8"  response="000000000010" foes="110000100010" cont="0"/>
        <request index="9"  response="000000000000" foes="000000000000" cont="0"/>
        <request index="10" response="000110000010" foes="000110100010" cont="0"/>
        <request index="11" response="000100010110" foes="000100010110" cont="0"/>
    </junction>
    <junction id="3" type="dead_end" x="600.00" y="600.00" incLanes="-h13_0 -h13_1 -h13_2" intLanes="" shape="600.00,600.00 600.00,590.40 600.00,600.00"/>
    <junction id="4" type="dead_end" x="150.00" y="450.00" incLanes="h21_0 h21_1 h21_2" intLanes="" shape="150.00,450.00 150.00,459.60 150.00,450.00"/>
    <junction id="5" type="traffic_light" x="300.00" y="450.00" incLanes="-v12_0 -v12_1 -v12_2 h22_0 h22_1 h22_2 v13_0 v13_1 v13_2 -h21_0 -h21_1 -h21_2" intLanes=":5_0_0 :5_1_0 :5_2_0 :5_3_0 :5_4_0 :5_5_0 :5_6_0 :5_7_0 :5_8_0 :5_9_0 :5_10_0 :5_11_0" shape="290.40,463.60 309.60,463.60 310.04,461.38 310.60,460.60 311.38,460.04 312.38,459.71 313.60,459.60 313.60,440.40 311.38,439.96 310.60,439.40 310.04,438.62 309.71,437.62 309.60,436.40 290.40,436.40 289.96,438.62 289.40,439.40 288.62,439.96 287.62,440.29 286.40,440.40 286.40,459.60 288.62,460.04 289.40,460.60 289.96,461.38 290.29,462.38">
        <request index="0"  response="000000000000" foes="000000000000" cont="0"/>
        <request index="1"  response="000000000000" foes="110100010000" cont="0"/>
        <request index="2"  response="000010000000" foes="100010110000" cont="0"/>
        <request index="3"  response="000000000000" foes="000000000000" cont="0"/>
        <request index="4"  response="000010000110" foes="100010000110" cont="0"/>
        <request index="5"  response="010110000100" foes="010110000100" cont="0"/>
        <request index="6"  response="000000000000" foes="000000000000" cont="0"/>
        <request index="7"  response="000000000000" foes="010000110100" cont="0"/>
        <request index="8"  response="000000000010" foes="110000100010" cont="0"/>
        <request index="9"  response="000000000000" foes="000000000000" cont="0"/>
        <request index="10" response="000110000010" foes="000110100010" cont="0"/>
        <request index="11" response="000100010110" foes="000100010110" cont="0"/>
    </junction>
    <junction id="6" type="traffic_light" x="450.00" y="450.00" incLanes="-v22_0 -v22_1 -v22_2 h23_0 h23_1 h23_2 v23_0 v23_1 v23_2 -h22_0 -h22_1 -h22_2" intLanes=":6_0_0 :6_1_0 :6_2_0 :6_3_0 :6_4_0 :6_5_0 :6_6_0 :6_7_0 :6_8_0 :6_9_0 :6_10_0 :6_11_0" shape="440.40,463.60 459.60,463.60 460.04,461.38 460.60,460.60 461.38,460.04 462.38,459.71 463.60,459.60 463.60,440.40 461.38,439.96 460.60,439.40 460.04,438.62 459.71,437.62 459.60,436.40 440.40,436.40 439.96,438.62 439.40,439.40 438.62,439.96 437.62,440.29 436.40,440.40 436.40,459.60 438.62,460.04 439.40,460.60 439.96,461.38 440.29,462.38">
        <request index="0"  response="000000000000" foes="000000000000" cont="0"/>
        <request index="1"  response="000000000000" foes="110100010000" cont="0"/>
        <request index="2"  response="000010000000" foes="100010110000" cont="0"/>
        <request index="3"  response="000000000000" foes="000000000000" cont="0"/>
        <request index="4"  response="000010000110" foes="100010000110" cont="0"/>
        <request index="5"  response="010110000100" foes="010110000100" cont="0"/>
        <request index="6"  response="000000000000" foes="000000000000" cont="0"/>
        <request index="7"  response="000000000000" foes="010000110100" cont="0"/>
        <request index="8"  response="000000000010" foes="110000100010" cont="0"/>
        <request index="9"  response="000000000000" foes="000000000000" cont="0"/>
        <request index="10" response="000110000010" foes="000110100010" cont="0"/>
        <request index="11" response="000100010110" foes="000100010110" cont="0"/>
    </junction>
    <junction id="7" type="dead_end" x="600.00" y="450.00" incLanes="-h23_0 -h23_1 -h23_2" intLanes="" shape="600.00,450.00 600.00,440.40 600.00,450.00"/>
    <junction id="9" type="dead_end" x="300.00" y="300.00" incLanes="-v13_0 -v13_1 -v13_2" intLanes="" shape="300.00,300.00 290.40,300.00 300.00,300.00"/>

    <connection from="-h11" to="-v12" fromLane="0" toLane="0" via=":1_9_0" tl="1" linkIndex="9" dir="r" state="O"/>
    <connection from="-h11" to="-h12" fromLane="1" toLane="1" via=":1_10_0" tl="1" linkIndex="10" dir="s" state="o"/>
    <connection from="-h11" to="v11" fromLane="2" toLane="2" via=":1_11_0" tl="1" linkIndex="11" dir="l" state="o"/>
    <connection from="-h12" to="-v22" fromLane="0" toLane="0" via=":2_9_0" tl="2" linkIndex="9" dir="r" state="O"/>
    <connection from="-h12" to="-h13" fromLane="1" toLane="1" via=":2_10_0" tl="2" linkIndex="10" dir="s" state="o"/>
    <connection from="-h12" to="v21" fromLane="2" toLane="2" via=":2_11_0" tl="2" linkIndex="11" dir="l" state="o"/>
    <connection from="-h21" to="-v13" fromLane="0" toLane="0" via=":5_9_0" tl="5" linkIndex="9" dir="r" state="O"/>
    <connection from="-h21" to="-h22" fromLane="1" toLane="1" via=":5_10_0" tl="5" linkIndex="10" dir="s" state="o"/>
    <connection from="-h21" to="v12" fromLane="2" toLane="2" via=":5_11_0" tl="5" linkIndex="11" dir="l" state="o"/>
    <connection from="-h22" to="-v23" fromLane="0" toLane="0" via=":6_9_0" tl="6" linkIndex="9" dir="r" state="O"/>
    <connection from="-h22" to="-h23" fromLane="1" toLane="1" via=":6_10_0" tl="6" linkIndex="10" dir="s" state="o"/>