<?xml version="1.0" encoding="UTF-8"?>

<!-- generated on 2026-03-20T22:26:21.419142+01:00 by Eclipse SUMO netconvert 1.26.0
<netconvertConfiguration xmlns:xsi="http://www.w3.org/2001/XMLSchema-instance" xsi:noNamespaceSchemaLocation="http://sumo.dlr.de/xsd/netconvertConfiguration.xsd">

    <input>
        <node-files value="/home/dado/lol/nets/2x2/plain/2x2.nod.xml"/>
        <edge-files value="/home/dado/lol/nets/2x2/plain/2x2.edg.xml"/>
        <connection-files value="/home/dado/lol/nets/2x2/plain/2x2.con.xml"/>
        <tllogic-files value="/home/dado/lol/nets/2x2/plain/2x2.tll.xml"/>
    </input>

    <output>
        <output-file value="/home/dado/lol/nets/2x2/2x2_peds.net.xml"/>
    </output>

    <processing>
        <offset.disable-normalization value="true"/>
    </processing>

    <junctions>
        <no-turnarounds value="true"/>
    </junctions>

    <pedestrian>
        <sidewalks.guess value="true"/>
        <crossings.guess value="true"/>
        <walkingareas value="true"/>
    </pedestrian>

</netconvertConfiguration>
-->

<net version="1.20" junctionCornerDetail="5" walkingareas="true" limitTurnSpeed="5.50" xmlns:xsi="http://www.w3.org/2001/XMLSchema-instance" xsi:noNamespaceSchemaLocation="http://sumo.dlr.de/xsd/net_file.xsd">

    <location netOffset="-1850.00,-2900.00" convBoundary="150.00,300.00,600.00,750.00" origBoundary="1850.00,2900.00,2600.00,3650.00" projParameter="!"/>

    <edge id=":0_w0" function="walkingarea">
        <lane id=":0_w0_0" index="0" allow="pedestrian" speed="2.78" length="21.20" width="2.00" shape="150.00,590.40 150.00,588.40 150.00,611.60 150.00,609.60"/>
    </edge>
    <edge id=":1_0" function="internal">
        <lane id=":1_0_0" index="0" disallow="pedestrian" speed="6.51" length="4.75" shape="292.00,613.60 291.65,611.15 290.60,609.40 290.40,609.28"/>
    </edge>
    <edge id=":1_1" function="internal">
        <lane id=":1_1_0" index="0" disallow="pedestrian" speed="13.89" length="27.20" shape="295.20,613.60 295.20,586.40"/>
    </edge>
    <edge id=":1_2" function="internal">
        <lane id=":1_2_0" index="0" disallow="pedestrian" speed="10.36" length="20.47" shape="298.40,613.60 299.35,606.95 302.20,602.20 306.95,599.35 309.60,598.97"/>
    </edge>
    <edge id=":1_12" function="internal">
        <lane id=":1_12_0" index="0" disallow="pedestrian" speed="6.51" length="4.28" shape="290.40,609.28 288.85,608.35 286.40,608.00"/>
    </edge>
    <edge id=":1_13" function="internal">
        <lane id=":1_13_0" index="0" disallow="pedestrian" speed="10.36" length="4.04" shape="309.60,598.97 313.60,598.40"/>
    </edge>
    <edge id=":1_3" function="internal">
        <lane id=":1_3_0" index="0" disallow="pedestrian" speed="6.51" length="4.75" shape="313.60,608.00 311.15,608.35 309.40,609.40 309.28,609.60"/>
    </edge>
    <edge id=":1_4" function="internal">
        <lane id=":1_4_0" index="0" disallow="pedestrian" speed="13.89" length="27.20" shape="313.60,604.80 286.40,604.80"/>
    </edge>
    <edge id=":1_5" function="internal">
        <lane id=":1_5_0" index="0" disallow="pedestrian" speed="10.36" length="20.47" shape="313.60,601.60 306.95,600.65 302.20,597.80 299.35,593.05 298.97,590.40"/>
    </edge>
    <edge id=":1_14" function="internal">
        <lane id=":1_14_0" index="0" disallow="pedestrian" speed="6.51" length="4.28" shape="309.28,609.60 308.35,611.15 308.00,613.60"/>
    </edge>
    <edge id=":1_15" function="internal">
        <lane id=":1_15_0" index="0" disallow="pedestrian" speed="10.36" length="4.04" shape="298.97,590.40 298.40,586.40"/>
    </edge>
    <edge id=":1_6" function="internal">
        <lane id=":1_6_0" index="0" disallow="pedestrian" speed="6.51" length="4.75" shape="308.00,586.40 308.35,588.85 309.40,590.60 309.60,590.72"/>
    </edge>
    <edge id=":1_7" function="internal">
        <lane id=":1_7_0" index="0" disallow="pedestrian" speed="13.89" length="27.20" shape="304.80,586.40 304.80,613.60"/>
    </edge>
    <edge id=":1_8" function="internal">
        <lane id=":1_8_0" index="0" disallow="pedestrian" speed="10.36" length="20.47" shape="301.60,586.40 300.65,593.05 297.80,597.80 293.05,600.65 290.40,601.03"/>
    </edge>
    <edge id=":1_16" function="internal">
        <lane id=":1_16_0" index="0" disallow="pedestrian" speed="6.51" length="4.28" shape="309.60,590.72 311.15,591.65 313.60,592.00"/>
    </edge>
    <edge id=":1_17" function="internal">
        <lane id=":1_17_0" index="0" disallow="pedestrian" speed="10.36" length="4.04" shape="290.40,601.03 286.40,601.60"/>
    </edge>
    <edge id=":1_9" function="internal">
        <lane id=":1_9_0" index="0" disallow="pedestrian" speed="6.51" length="4.75" shape="286.40,592.00 288.85,591.65 290.60,590.60 290.72,590.40"/>
    </edge>
    <edge id=":1_10" function="internal">
        <lane id=":1_10_0" index="0" disallow="pedestrian" speed="13.89" length="27.20" shape="286.40,595.20 313.60,595.20"/>
    </edge>
    <edge id=":1_11" function="internal">
        <lane id=":1_11_0" index="0" disallow="pedestrian" speed="10.36" length="20.47" shape="286.40,598.40 293.05,599.35 297.80,602.20 300.65,606.95 301.03,609.60"/>
    </edge>
    <edge id=":1_18" function="internal">
        <lane id=":1_18_0" index="0" disallow="pedestrian" speed="6.51" length="4.28" shape="290.72,590.40 291.65,588.85 292.00,586.40"/>
    </edge>
    <edge id=":1_19" function="internal">
        <lane id=":1_19_0" index="0" disallow="pedestrian" speed="10.36" length="4.04" shape="301.03,609.60 301.60,613.60"/>
    </edge>
    <edge id=":1_c0" function="crossing" crossingEdges="v11 -v11">
        <lane id=":1_c0_0" index="0" allow="pedestrian" speed="2.78" length="19.20" width="4.00" shape="309.60,611.60 290.40,611.60" outlineShape="309.60,613.60 290.40,613.60 286.40,609.60 286.40,611.60 288.40,613.60 290.40,613.60 286.40,609.60 313.60,609.60 312.38,609.71 311.38,610.04 310.60,610.60 310.04,611.38 309.71,612.38"/>
    </edge>
    <edge id=":1_c1" function="crossing" crossingEdges="-h12 h12">
        <lane id=":1_c1_0" index="0" allow="pedestrian" speed="2.78" length="19.20" width="4.00" shape="311.60,590.40 311.60,609.60" outlineShape="313.60,590.40 313.60,609.60 309.60,613.60 311.60,613.60 313.60,611.60 313.60,609.60 309.60,613.60 309.60,586.40 309.71,587.62 310.04,588.62 310.60,589.40 311.38,589.96 312.38,590.29"/>
    </edge>
    <edge id=":1_c2" function="crossing" crossingEdges="-v12 v12">
        <lane id=":1_c2_0" index="0" allow="pedestrian" speed="2.78" length="19.20" width="4.00" shape="290.40,588.40 309.60,588.40" outlineShape="290.40,586.40 309.60,586.40 313.60,590.40 313.60,588.40 311.60,586.40 309.60,586.40 313.60,590.40 286.40,590.40 287.62,590.29 288.62,589.96 289.40,589.40 289.96,588.62 290.29,587.62"/>
    </edge>
    <edge id=":1_c3" function="crossing" crossingEdges="h11 -h11">
        <lane id=":1_c3_0" index="0" allow="pedestrian" speed="2.78" length="19.20" width="4.00" shape="288.40,609.60 288.40,590.40" outlineShape="286.40,609.60 286.40,590.40 290.40,586.40 288.40,586.40 286.40,588.40 286.40,590.40 290.40,586.40 290.40,613.60 290.29,612.38 289.96,611.38 289.40,610.60 288.62,610.04 287.62,609.71"/>
    </edge>
    <edge id=":1_w0" function="walkingarea">
        <lane id=":1_w0_0" index="0" allow="pedestrian" speed="2.78" length="3.30" width="4.00" shape="286.40,609.60 286.40,611.60 288.40,613.60 290.40,613.60 290.29,612.38 289.96,611.38 289.40,610.60 288.62,610.04 287.62,609.71"/>
    </edge>
    <edge id=":1_w1" function="walkingarea">
        <lane id=":1_w1_0" index="0" allow="pedestrian" speed="2.78" length="3.30" width="4.00" shape="309.60,613.60 311.60,613.60 313.60,611.60 313.60,609.60 312.38,609.71 311.38,610.04 310.60,610.60 310.04,611.38 309.71,612.38"/>
    </edge>
    <edge id=":1_w2" function="walkingarea">
        <lane id=":1_w2_0" index="0" allow="pedestrian" speed="2.78" length="3.30" width="4.00" shape="313.60,590.40 313.60,588.40 311.60,586.40 309.60,586.40 309.71,587.62 310.04,588.62 310.60,589.40 311.38,589.96 312.38,590.29"/>
    </edge>
    <edge id=":1_w3" function="walkingarea">
        <lane id=":1_w3_0" index="0" allow="pedestrian" speed="2.78" length="3.30" width="4.00" shape="290.40,586.40 288.40,586.40 286.40,588.40 286.40,590.40 287.62,590.29 288.62,589.96 289.40,589.40 289.96,588.62 290.29,587.62"/>
    </edge>
    <edge id=":10_w0" function="walkingarea">
        <lane id=":10_w0_0" index="0" allow="pedestrian" speed="2.78" length="21.20" width="2.00" shape="459.60,300.00 461.60,300.00 438.40,300.00 440.40,300.00"/>
    </edge>
    <edge id=":17_w0" function="walkingarea">
        <lane id=":17_w0_0" index="0" allow="pedestrian" speed="2.78" length="21.20" width="2.00" shape="290.40,750.00 288.40,750.00 311.60,750.00 309.60,750.00"/>
    </edge>
    <edge id=":18_w0" function="walkingarea">
        <lane id=":18_w0_0" index="0" allow="pedestrian" speed="2.78" length="21.20" width="2.00" shape="440.40,750.00 438.40,750.00 461.60,750.00 459.60,750.00"/>
    </edge>
    <edge id=":2_0" function="internal">
        <lane id=":2_0_0" index="0" disallow="pedestrian" speed="6.51" length="4.75" shape="442.00,613.60 441.65,611.15 440.60,609.40 440.40,609.28"/>
    </edge>
    <edge id=":2_1" function="internal">
        <lane id=":2_1_0" index="0" disallow="pedestrian" speed="13.89" length="27.20" shape="445.20,613.60 445.20,586.40"/>
    </edge>
    <edge id=":2_2" function="internal">
        <lane id=":2_2_0" index="0" disallow="pedestrian" speed="10.36" length="20.47" shape="448.40,613.60 449.35,606.95 452.20,602.20 456.95,599.35 459.60,598.97"/>
    </edge>
    <edge id=":2_12" function="internal">
        <lane id=":2_12_0" index="0" disallow="pedestrian" speed="6.51" length="4.28" shape="440.40,609.28 438.85,608.35 436.40,608.00"/>
    </edge>
    <edge id=":2_13" function="internal">
        <lane id=":2_13_0" index="0" disallow="pedestrian" speed="10.36" length="4.04" shape="459.60,598.97 463.60,598.40"/>
    </edge>
    <edge id=":2_3" function="internal">
        <lane id=":2_3_0" index="0" disallow="pedestrian" speed="6.51" length="4.75" shape="463.60,608.00 461.15,608.35 459.40,609.40 459.28,609.60"/>
    </edge>
    <edge id=":2_4" function="internal">
        <lane id=":2_4_0" index="0" disallow="pedestrian" speed="13.89" length="27.20" shape="463.60,604.80 436.40,604.80"/>
    </edge>
    <edge id=":2_5" function="internal">
        <lane id=":2_5_0" index="0" disallow="pedestrian" speed="10.36" length="20.47" shape="463.60,601.60 456.95,600.65 452.20,597.80 449.35,593.05 448.97,590.40"/>
    </edge>
    <edge id=":2_14" function="internal">
        <lane id=":2_14_0" index="0" disallow="pedestrian" speed="6.51" length="4.28" shape="459.28,609.60 458.35,611.15 458.00,613.60"/>
    </edge>
    <edge id=":2_15" function="internal">
        <lane id=":2_15_0" index="0" disallow="pedestrian" speed="10.36" length="4.04" shape="448.97,590.40 448.40,586.40"/>
    </edge>
    <edge id=":2_6" function="internal">
        <lane id=":2_6_0" index="0" disallow="pedestrian" speed="6.51" length="4.75" shape="458.00,586.40 458.35,588.85 459.40,590.60 459.60,590.72"/>
    </edge>
    <edge id=":2_7" function="internal">
        <lane id=":2_7_0" index="0" disallow="pedestrian" speed="13.89" length="27.20" shape="454.80,586.40 454.80,613.60"/>
    </edge>
    <edge id=":2_8" function="internal">
        <lane id=":2_8_0" index="0" disallow="pedestrian" speed="10.36" length="20.47" shape="451.60,586.40 450.65,593.05 447.80,597.80 443.05,600.65 440.40,601.03"/>
    </edge>
    <edge id=":2_16" function="internal">
        <lane id=":2_16_0" index="0" disallow="pedestrian" speed="6.51" length="4.28" shape="459.60,590.72 461.15,591.65 463.60,592.00"/>
    </edge>
    <edge id=":2_17" function="internal">
        <lane id=":2_17_0" index="0" disallow="pedestrian" speed="10.36" length="4.04" shape="440.40,601.03 436.40,601.60"/>
    </edge>
    <edge id=":2_9" function="internal">
        <lane id=":2_9_0" index="0" disallow="pedestrian" speed="6.51" length="4.75" shape="436.40,592.00 438.85,591.65 440.60,590.60 440.72,590.40"/>
    </edge>
    <edge id=":2_10" function="internal">
        <lane id=":2_10_0" index="0" disallow="pedestrian" speed="13.89" length="27.20" shape="436.40,595.20 463.60,595.20"/>
    </edge>
    <edge id=":2_11" function="internal">
        <lane id=":2_11_0" index="0" disallow="pedestrian" speed="10.36" length="20.47" shape="436.40,598.40 443.05,599.35 447.80,602.20 450.65,606.95 451.03,609.60"/>
    </edge>
    <edge id=":2_18" function="internal">
        <lane id=":2_18_0" index="0" disallow="pedestrian" speed="6.51" length="4.28" shape="440.72,590.40 441.65,588.85 442.00,586.40"/>
    </edge>
    <edge id=":2_19" function="internal">
        <lane id=":2_19_0" index="0" disallow="pedestrian" speed="10.36" length="4.04" shape="451.03,609.60 451.60,613.60"/>
    </edge>
    <edge id=":2_c0" function="crossing" crossingEdges="v21 -v21">
        <lane id=":2_c0_0" index="0" allow="pedestrian" speed="2.78" length="19.20" width="4.00" shape="459.60,611.60 440.40,611.60" outlineShape="459.60,613.60 440.40,613.60 436.40,609.60 436.40,611.60 438.40,613.60 440.40,613.60 436.40,609.60 463.60,609.60 462.38,609.71 461.38,610.04 460.60,610.60 460.04,611.38 459.71,612.38"/>
    </edge>
    <edge id=":2_c1" function="crossing" crossingEdges="-h13 h13">
        <lane id=":2_c1_0" index="0" allow="pedestrian" speed="2.78" length="19.20" width="4.00" shape="461.60,590.40 461.60,609.60" outlineShape="463.60,590.40 463.60,609.60 459.60,613.60 461.60,613.60 463.60,611.60 463.60,609.60 459.60,613.60 459.60,586.40 459.71,587.62 460.04,588.62 460.60,589.40 461.38,589.96 462.38,590.29"/>
    </edge>
    <edge id=":2_c2" function="crossing" crossingEdges="-v22 v22">
        <lane id=":2_c2_0" index="0" allow="pedestrian" speed="2.78" length="19.20" width="4.00" shape="440.40,588.40 459.60,588.40" outlineShape="440.40,586.40 459.60,586.40 463.60,590.40 463.60,588.40 461.60,586.40 459.60,586.40 463.60,590.40 436.40,590.40 437.62,590.29 438.62,589.96 439.40,589.40 439.96,588.62 440.29,587.62"/>
    </edge>
    <edge id=":2_c3" function="crossing" crossingEdges="h12 -h12">
        <lane id=":2_c3_0" index="0" allow="pedestrian" speed="2.78" length="19.20" width="4.00" shape="438.40,609.60 438.40,590.40" outlineShape="436.40,609.60 436.40,590.40 440.40,586.40 438.40,586.40 436.40,588.40 436.40,590.40 440.40,586.40 440.40,613.60 440.29,612.38 439.96,611.38 439.40,610.60 438.62,610.04 437.62,609.71"/>
    </edge>
    <edge id=":2_w0" function="walkingarea">
        <lane id=":2_w0_0" index="0" allow="pedestrian" speed="2.78" length="3.30" width="4.00" shape="436.40,609.60 436.40,611.60 438.40,613.60 440.40,613.60 440.29,612.38 439.96,611.38 439.40,610.60 438.62,610.04 437.62,609.71"/>
    </edge>
    <edge id=":2_w1" function="walkingarea">
        <lane id=":2_w1_0" index="0" allow="pedestrian" speed="2.78" length="3.30" width="4.00" shape="459.60,613.60 461.60,613.60 463.60,611.60 463.60,609.60 462.38,609.71 461.38,610.04 460.60,610.60 460.04,611.38 459.71,612.38"/>
    </edge>
    <edge id=":2_w2" function="walkingarea">
        <lane id=":2_w2_0" index="0" allow="pedestrian" speed="2.78" length="3.30" width="4.00" shape="463.60,590.40 463.60,588.40 461.60,586.40 459.60,586.40 459.71,587.62 460.04,588.62 460.60,589.40 461.38,589.96 462.38,590.29"/>
    </edge>
    <edge id=":2_w3" function="walkingarea">
        <lane id=":2_w3_0" index="0" allow="pedestrian" speed="2.78" length="3.30" width="4.00" shape="440.40,586.40 438.40,586.40 436.40,588.40 436.40,590.40 437.62,590.29 438.62,589.96 439.40,589.40 439.96,588.62 440.29,587.62"/>
    </edge>
    <edge id=":3_w0" function="walkingarea">
        <lane id=":3_w0_0" index="0" allow="pedestrian" speed="2.78" length="21.20" width="2.00" shape="600.00,609.60 600.00,611.60 600.00,588.40 600.00,590.40"/>
    </edge>
    <edge id=":4_w0" function="walkingarea">
        <lane id=":4_w0_0" index="0" allow="pedestrian" speed="2.78" length="21.20" width="2.00" shape="150.00,440.40 150.00,438.40 150.00,461.60 150.00,459.60"/>
    </edge>
    <edge id=":5_0" function="internal">
        <lane id=":5_0_0" index="0" disallow="pedestrian" speed="6.51" length="4.75" shape="292.00,463.60 291.65,461.15 290.60,459.40 290.40,459.28"/>
    </edge>
    <edge id=":5_1" function="internal">
        <lane id=":5_1_0" index="0" disallow="pedestrian" speed="13.89" length="27.20" shape="295.20,463.60 295.20,436.40"/>
    </edge>
    <edge id=":5_2" function="internal">
        <lane id=":5_2_0" index="0" disallow="pedestrian" speed="10.36" length="20.47" shape="298.40,463.60 299.35,456.95 302.20,452.20 306.95,449.35 309.60,448.97"/>
    </edge>
    <edge id=":5_12" function="internal">
        <lane id=":5_12_0" index="0" disallow="pedestrian" speed="6.51" length="4.28" shape="290.40,459.28 288.85,458.35 286.40,458.00"/>
    </edge>
    <edge id=":5_13" function="internal">
        <lane id=":5_13_0" index="0" disallow="pedestrian" speed="10.36" length="4.04" shape="309.60,448.97 313.60,448.40"/>
    </edge>
    <edge id=":5_3" function="internal">
        <lane id=":5_3_0" index="0" disallow="pedestrian" speed="6.51" length="4.75" shape="313.60,458.00 311.15,458.35 309.40,459.40 309.28,459.60"/>
    </edge>
    <edge id=":5_4" function="internal">
        <lane id=":5_4_0" index="0" disallow="pedestrian" speed="13.89" length="27.20" shape="313.60,454.80 286.40,454.80"/>
    </edge>
    <edge id=":5_5" function="internal">
        <lane id=":5_5_0" index="0" disallow="pedestrian" speed="10.36" length="20.47" shape="313.60,451.60 306.95,450.65 302.20,447.80 299.35,443.05 298.97,440.40"/>
    </edge>
    <edge id=":5_14" function="internal">
        <lane id=":5_14_0" index="0" disallow="pedestrian" speed="6.51" length="4.28" shape="309.28,459.60 308.35,461.15 308.00,463.60"/>
    </edge>
    <edge id=":5_15" function="internal">
        <lane id=":5_15_0" index="0" disallow="pedestrian" speed="10.36" length="4.04" shape="298.97,440.40 298.40,436.40"/>
    </edge>
    <edge id=":5_6" function="internal">
        <lane id=":5_6_0" index="0" disallow="pedestrian" speed="6.51" length="4.75" shape="308.00,436.40 308.35,438.85 309.40,440.60 309.60,440.72"/>
    </edge>
    <edge id=":5_7" function="internal">
        <lane id=":5_7_0" index="0" disallow="pedestrian" speed="13.89" length="27.20" shape="304.80,436.40 304.80,463.60"/>
    </edge>
    <edge id=":5_8" function="internal">
        <lane id=":5_8_0" index="0" disallow="pedestrian" speed="10.36" length="20.47" shape="301.60,436.40 300.65,443.05 297.80,447.80 293.05,450.65 290.40,451.03"/>
    </edge>
    <edge id=":5_16" function="internal">
        <lane id=":5_16_0" index="0" disallow="pedestrian" speed="6.51" length="4.28" shape="309.60,440.72 311.15,441.65 313.60,442.00"/>
    </edge>
    <edge id=":5_17" function="internal">
        <lane id=":5_17_0" index="0" disallow="pedestrian" speed="10.36" length="4.04" shape="290.40,451.03 286.40,451.60"/>
    </edge>
    <edge id=":5_9" function="internal">
        <lane id=":5_9_0" index="0" disallow="pedestrian" speed="6.51" length="4.75" shape="286.40,442.00 288.85,441.65 290.60,440.60 290.72,440.40"/>
    </edge>
    <edge id=":5_10" function="internal">
        <lane id=":5_10_0" index="0" disallow="pedestrian" speed="13.89" length="27.20" shape="286.40,445.20 313.60,445.20"/>
    </edge>
    <edge id=":5_11" function="internal">
        <lane id=":5_11_0" index="0" disallow="pedestrian" speed="10.36" length="20.47" shape="286.40,448.40 293.05,449.35 297.80,452.20 300.65,456.95 301.03,459.60"/>
    </edge>
    <edge id=":5_18" function="internal">
        <lane id=":5_18_0" index="0" disallow="pedestrian" speed="6.51" length="4.28" shape="290.72,440.40 291.65,438.85 292.00,436.40"/>
    </edge>
    <edge id=":5_19" function="internal">
        <lane id=":5_19_0" index="0" disallow="pedestrian" speed="10.36" length="4.04" shape="301.03,459.60 301.60,463.60"/>
    </edge>
    <edge id=":5_c0" function="crossing" crossingEdges="v12 -v12">
        <lane id=":5_c0_0" index="0" allow="pedestrian" speed="2.78" length="19.20" width="4.00" shape="309.60,461.60 290.40,461.60" outlineShape="309.60,463.60 290.40,463.60 286.40,459.60 286.40,461.60 288.40,463.60 290.40,463.60 286.40,459.60 313.60,459.60 312.38,459.71 311.38,460.04 310.60,460.60 310.04,461.38 309.71,462.38"/>
    </edge>
    <edge id=":5_c1" function="crossing" crossingEdges="-h22 h22">
        <lane id=":5_c1_0" index="0" allow="pedestrian" speed="2.78" length="19.20" width="4.00" shape="311.60,440.40 311.60,459.60" outlineShape="313.60,440.40 313.60,459.60 309.60,463.60 311.60,463.60 313.60,461.60 313.60,459.60 309.60,463.60 309.60,436.40 309.71,437.62 310.04,438.62 310.60,439.40 311.38,439.96 312.38,440.29"/>
    </edge>
    <edge id=":5_c2" function="crossing" crossingEdges="-v13 v13">
        <lane id=":5_c2_0" index="0" allow="pedestrian" speed="2.78" length="19.20" width="4.00" shape="290.40,438.40 309.60,438.40" outlineShape="290.40,436.40 309.60,436.40 313.60,440.40 313.60,438.40 311.60,436.40 309.60,436.40 313.60,440.40 286.40,440.40 287.62,440.29 288.62,439.96 289.40,439.40 289.96,438.62 290.29,437.62"/>
    </edge>
    <edge id=":5_c3" function="crossing" crossingEdges="h21 -h21">
        <lane id=":5_c3_0" index="0" allow="pedestrian" speed="2.78" length="19.20" width="4.00" shape="288.40,459.60 288.40,440.40" outlineShape="286.40,459.60 286.40,440.40 290.40,436.40 288.40,436.40 286.40,438.40 286.40,440.40 290.40,436.40 290.40,463.60 290.29,462.38 289.96,461.38 289.40,460.60 288.62,460.04 287.62,459.71"/>
    </edge>
    <edge id=":5_w0" function="walkingarea">
        <lane id=":5_w0_0" index="0" allow="pedestrian" speed="2.78" length="3.30" width="4.00" shape="286.40,459.60 286.40,461.60 288.40,463.60 290.40,463.60 290.29,462.38 289.96,461.38 289.40,460.60 288.62,460.04 287.62,459.71"/>
    </edge>
    <edge id=":5_w1" function="walkingarea">
        <lane id=":5_w1_0" index="0" allow="pedestrian" speed="2.78" length="3.30" width="4.00" shape="309.60,463.60 311.60,463.60 313.60,461.60 313.60,459.60 312.38,459.71 311.38,460.04 310.60,460.60 310.04,461.38 309.71,462.38"/>
    </edge>
    <edge id=":5_w2" function="walkingarea">
        <lane id=":5_w2_0" index="0" allow="pedestrian" speed="2.78" length="3.30" width="4.00" shape="313.60,440.40 313.60,438.40 311.60,436.40 309.60,436.40 309.71,437.62 310.04,438.62 310.60,439.40 311.38,439.96 312.38,440.29"/>
    </edge>
    <edge id=":5_w3" function="walkingarea">
        <lane id=":5_w3_0" index="0" allow="pedestrian" speed="2.78" length="3.30" width="4.00" shape="290.40,436.40 288.40,436.40 286.40,438.40 286.40,440.40 287.62,440.29 288.62,439.96 289.40,439.40 289.96,438.62 290.29,437.62"/>
    </edge>
    <edge id=":6_0" function="internal">
        <lane id=":6_0_0" index="0" disallow="pedestrian" speed="6.51" length="4.75" shape="442.00,463.60 441.65,461.15 440.60,459.40 440.40,459.28"/>
    </edge>
    <edge id=":6_1" function="internal">
        <lane id=":6_1_0" index="0" disallow="pedestrian" speed="13.89" length="27.20" shape="445.20,463.60 445.20,436.40"/>
    </edge>
    <edge id=":6_2" function="internal">
        <lane id=":6_2_0" index="0" disallow="pedestrian" speed="10.36" length="20.47" shape="448.40,463.60 449.35,456.95 452.20,452.20 456.95,449.35 459.60,448.97"/>
    </edge>
    <edge id=":6_12" function="internal">
        <lane id=":6_12_0" index="0" disallow="pedestrian" speed="6.51" length="4.28" shape="440.40,459.28 438.85,458.35 436.40,458.00"/>
    </edge>
    <edge id=":6_13" function="internal">
        <lane id=":6_13_0" index="0" disallow="pedestrian" speed="10.36" length="4.04" shape="459.60,448.97 463.60,448.40"/>
    </edge>
    <edge id=":6_3" function="internal">
        <lane id=":6_3_0" index="0" disallow="pedestrian" speed="6.51" length="4.75" shape="463.60,458.00 461.15,458.35 459.40,459.40 459.28,459.60"/>
    </edge>
    <edge id=":6_4" function="internal">
        <lane id=":6_4_0" index="0" disallow="pedestrian" speed="13.89" length="27.20" shape="463.60,454.80 436.40,454.80"/>
    </edge>
    <edge id=":6_5" function="internal">
        <lane id=":6_5_0" index="0" disallow="pedestrian" speed="10.36" length="20.47" shape="463.60,451.60 456.95,450.65 452.20,447.80 449.35,443.05 448.97,440.40"/>
    </edge>
    <edge id=":6_14" function="internal">
        <lane id=":6_14_0" index="0" disallow="pedestrian" speed="6.51" length="4.28" shape="459.28,459.60 458.35,461.15 458.00,463.60"/>
    </edge>
    <edge id=":6_15" function="internal">
        <lane id=":6_15_0" index="0" disallow="pedestrian" speed="10.36" length="4.04" shape="448.97,440.40 448.40,436.40"/>
    </edge>
    <edge id=":6_6" function="internal">
        <lane id=":6_6_0" index="0" disallow="pedestrian" speed="6.51" length="4.75" shape="458.00,436.40 458.35,438.85 459.40,440.60 459.60,440.72"/>
    </edge>
    <edge id=":6_7" function="internal">
        <lane id=":6_7_0" index="0" disallow="pedestrian" speed="13.89" length="27.20" shape="454.80,436.40 454.80,463.60"/>
    </edge>
    <edge id=":6_8" function="internal">
        <lane id=":6_8_0" index="0" disallow="pedestrian" speed="10.36" length="20.47" shape="451.60,436.40 450.65,443.05 447.80,447.80 443.05,450.65 440.40,451.03"/>
    </edge>
    <edge id=":6_16" function="internal">
        <lane id=":6_16_0" index="0" disallow="pedestrian" speed="6.51" length="4.28" shape="459.60,440.72 461.15,441.65 463.60,442.00"/>
    </edge>
    <edge id=":6_17" function="internal">
        <lane id=":6_17_0" index="0" disallow="pedestrian" speed="10.36" length="4.04" shape="440.40,451.03 436.40,451.60"/>
    </edge>
    <edge id=":6_9" function="internal">
        <lane id=":6_9_0" index="0" disallow="pedestrian" speed="6.51" length="4.75" shape="436.40,442.00 438.85,441.65 440.60,440.60 440.72,440.40"/>
    </edge>
    <edge id=":6_10" function="internal">
        <lane id=":6_10_0" index="0" disallow="pedestrian" speed="13.89" length="27.20" shape="436.40,445.20 463.60,445.20"/>
    </edge>
    <edge id=":6_11" function="internal">
        <lane id=":6_11_0" index="0" disallow="pedestrian" speed="10.36" length="20.47" shape="436.40,448.40 443.05,449.35 447.80,452.20 450.65,456.95 451.03,459.60"/>
    </edge>
    <edge id=":6_18" function="internal">
        <lane id=":6_18_0" index="0" disallow="pedestrian" speed="6.51" length="4.28" shape="440.72,440.40 441.65,438.85 442.00,436.40"/>
    </edge>
    <edge id=":6_19" function="internal">
        <lane id=":6_19_0" index="0" disallow="pedestrian" speed="10.36" length="4.04" shape="451.03,459.60 451.60,463.60"/>
    </edge>
    <edge id=":6_c0" function="crossing" crossingEdges="v22 -v22">
        <lane id=":6_c0_0" index="0" allow="pedestrian" speed="2.78" length="19.20" width="4.00" shape="459.60,461.60 440.40,461.60" outlineShape="459.60,463.60 440.40,463.60 436.40,459.60 436.40,461.60 438.40,463.60 440.40,463.60 436.40,459.60 463.60,459.60 462.38,459.71 461.38,460.04 460.60,460.60 460.04,461.38 459.71,462.38"/>
    </edge>
    <edge id=":6_c1" function="crossing" crossingEdges="-h23 h23">
        <lane id=":6_c1_0" index="0" allow="pedestrian" speed="2.78" length="19.20" width="4.00" shape="461.60,440.40 461.60,459.60" outlineShape="463.60,440.40 463.60,459.60 459.60,463.60 461.60,463.60 463.60,461.60 463.60,459.60 459.60,463.60 459.60,436.40 459.71,437.62 460.04,438.62 460.60,439.40 461.38,439.96 462.38,440.29"/>
    </edge>
    <edge id=":6_c2" function="crossing" crossingEdges="-v23 v23">
        <lane id=":6_c2_0" index="0" allow="pedestrian" speed="2.78" length="19.20" width="4.00" shape="440.40,438.40 459.60,438.40" outlineShape="440.40,436.40 459.60,436.40 463.60,440.40 463.60,438.40 461.60,436.40 459.60,436.40 463.60,440.40 436.40,440.40 437.62,440.29 438.62,439.96 439.40,439.40 439.96,438.62 440.29,437.62"/>
    </edge>
    <edge id=":6_c3" function="crossing" crossingEdges="h22 -h22">
        <lane id=":6_c3_0" index="0" allow="pedestrian" speed="2.78" length="19.20" width="4.00" shape="438.40,459.60 438.40,440.40" outlineShape="436.40,459.60 436.40,440.40 440.40,436.40 438.40,436.40 436.40,438.40 436.40,440.40 440.40,436.40 440.40,463.60 440.29,462.38 439.96,461.38 439.40,460.60 438.62,460.04 437.62,459.71"/>
    </edge>
    <edge id=":6_w0" function="walkingarea">
        <lane id=":6_w0_0" index="0" allow="pedestrian" speed="2.78" length="3.30" width="4.00" shape="436.40,459.60 436.40,461.60 438.40,463.60 440.40,463.60 440.29,462.38 439.96,461.38 439.40,460.60 438.62,460.04 437.62,459.71"/>
    </edge>
    <edge id=":6_w1" function="walkingarea">
        <lane id=":6_w1_0" index="0" allow="pedestrian" speed="2.78" length="3.30" width="4.00" shape="459.60,463.60 461.60,463.60 463.60,461.60 463.60,459.60 462.38,459.71 461.38,460.04 460.60,460.60 460.04,461.38 459.71,462.38"/>
    </edge>
    <edge id=":6_w2" function="walkingarea">
        <lane id=":6_w2_0" index="0" allow="pedestrian" speed="2.78" length="3.30" width="4.00" shape="463.60,440.40 463.60,438.40 461.60,436.40 459.60,436.40 459.71,437.62 460.04,438.62 460.60,439.40 461.38,439.96 462.38,440.29"/>
    </edge>
    <edge id=":6_w3" function="walkingarea">
        <lane id=":6_w3_0" index="0" allow="pedestrian" speed="2.78" length="3.30" width="4.00" shape="440.40,436.40 438.40,436.40 436.40,438.40 436.40,440.40 437.62,440.29 438.62,439.96 439.40,439.40 439.96,438.62 440.29,437.62"/>
    </edge>
    <edge id=":7_w0" function="walkingarea">
        <lane id=":7_w0_0" index="0" allow="pedestrian" speed="2.78" length="21.20" width="2.00" shape="600.00,459.60 600.00,461.60 600.00,438.40 600.00,440.40"/>
    </edge>
    <edge id=":9_w0" function="walkingarea">
        <lane id=":9_w0_0" index="0" allow="pedestrian" speed="2.78" length="21.20" width="2.00" shape="309.60,300.00 311.60,300.00 288.40,300.00 290.40,300.00"/>
    </edge>
