<routes>
    <flow id="west_north_straight_w0" from="-h11" to="-h13" begin="0" end="450" vehsPerHour="340" departSpeed="max" departPos="base" departLane="best" />
    <flow id="west_north_left_w0" from="-h11" to="v11" begin="0" end="450" vehsPerHour="168" departSpeed="max" departPos="base" departLane="best" />
    <flow id="west_north_right_w0" from="-h11" to="-v13" begin="0" end="450" vehsPerHour="196" departSpeed="max" departPos="base" departLane="best" />
    <personFlow id="ped_west_north_straight_w0" begin="0" end="450" personsPerHour="60" departPos="base">
        <personTrip from="-h11" to="-h13" />
    </personFlow>
    <personFlow id="ped_west_north_left_w0" begin="0" end="450" personsPerHour="26" departPos="base">
        <personTrip from="-h11" to="v11" />
    </personFlow>
    <personFlow id="ped_west_north_right_w0" begin="0" end="450" personsPerHour="21" departPos="base">
        <personTrip from="-h11" to="-v13" />
    </personFlow>
    <flow id="west_south_straight_w0" from="-h21" to="-h23" begin="0" end="450" vehsPerHour="270" departSpeed="max" departPos="base" departLane="best" />
    <flow id="west_south_left_w0" from="-h21" to="v11" begin="0" end="450" vehsPerHour="86" departSpeed="max" departPos="base" departLane="best" />
    <flow id="west_south_right_w0" from="-h21" to="-v13" begin="0" end="450" vehsPerHour="87" departSpeed="max" departPos="base" departLane="best" />
    <personFlow id="ped_west_south_straight_w0" begin="0" end="450" personsPerHour="76" departPos="base">
        <personTrip from="-h21" to="-h23" />
    </personFlow>
    <personFlow id="ped_west_south_left_w0" begin="0" end="450" personsPerHour="20" departPos="base">
        <personTrip from="-h21" to="v11" />
    </personFlow>
    <personFlow id="ped_west_south_right_w0" begin="0" end="450" personsPerHour="44" departPos="base">
        <personTrip from="-h21" to="-v13" />
    </personFlow>
    <flow id="east_north_straight_w0" from="h13" to="h11" begin="0" end="450" vehsPerHour="327" departSpeed="max" departPos="base" departLane="best" />
    <flow id="east_north_left_w0" from="h13" to="-v23" begin="0" end="450" vehsPerHour="54" departSpeed="max" departPos="base" departLane="best" />
    <flow id="east_north_right_w0" from="h13" to="v21" begin="0" end="450" vehsPerHour="118" departSpeed="max" departPos="base" departLane="best" />
    <personFlow id="ped_east_north_straight_w0" begin="0" end="450" personsPerHour="73" departPos="base">
        <personTrip from="h13" to="h11" />
    </personFlow>
    <personFlow id="ped_east_north_left_w0" begin="0" end="450" personsPerHour="30" departPos="base">
        <personTrip from="h13" to="-v23" />
    </personFlow>
    <personFlow id="ped_east_north_right_w0" begin="0" end="450" personsPerHour="9" departPos="base">
        <personTrip from="h13" to="v21" />
    </personFlow>
    <flow id="east_south_straight_w0" from="h23" to="h21" begin="0" end="450" vehsPerHour="292" departSpeed="max" departPos="base" departLane="best" />
    <flow id="east_south_left_w0" from="h23" to="-v23" begin="0" end="450" vehsPerHour="105" departSpeed="max" departPos="base" departLane="best" />
    <flow id="east_south_right_w0" from="h23" to="v21" begin="0" end="450" vehsPerHour="179" departSpeed="max" departPos="base" departLane="best" />
    <personFlow id="ped_east_south_straight_w0" begin="0" end="450" personsPerHour="77" departPos="base">
        <personTrip from="h23" to="h21" />
    </personFlow>
    <personFlow id="ped_east_south_left_w0" begin="0" end="450" personsPerHour="13" departPos="base">
        <personTrip from="h23" to="-v23" />
    </personFlow>
    <personFlow id="ped_east_south_right_w0" begin="0" end="450" personsPerHour="24" departPos="base">
        <personTrip from="h23" to="v21" />
    </personFlow>
    <flow id="north_west_straight_w0" from="-v11" to="-v13" begin="0" end="450" vehsPerHour="300" departSpeed="max" departPos="base" departLane="best" />
    <flow id="north_west_left_w0" from="-v11" to="-h13" begin="0" end="450" vehsPerHour="120" departSpeed="max" departPos="base" departLane="best" />
    <flow id="north_west_right_w0" from="-v11" to="h11" begin="0" end="450" vehsPerHour="42" departSpeed="max" departPos="base" departLane="best" />
    <personFlow id="ped_north_west_straight_w0" begin="0" end="450" personsPerHour="60" departPos="base">
        <personTrip from="-v11" to="-v13" />
    </personFlow>
    <personFlow id="ped_north_west_left_w0" begin="0" end="450" personsPerHour="11" departPos="base">
        <personTrip from="-v11" to="-h13" />
    </personFlow>
    <personFlow id="ped_north_west_right_w0" begin="0" end="450" personsPerHour="25" departPos="base">
        <personTrip from="-v11" to="h11" />
    </personFlow>
    <flow id="north_east_straight_w0" from="-v21" to="-v23" begin="0" end="450" vehsPerHour="167" departSpeed="max" departPos="base" departLane="best" />
    <flow id="north_east_left_w0" from="-v21" to="-h13" begin="0" end="450" vehsPerHour="108" departSpeed="max" departPos="base" departLane="best" />
    <flow id="north_east_right_w0" from="-v21" to="h11" begin="0" end="450" vehsPerHour="172" departSpeed="max" departPos="base" departLane="best" />
    <personFlow id="ped_north_east_straight_w0" begin="0" end="450" personsPerHour="74" departPos="base">
        <personTrip from="-v21" to="-v23" />
    </personFlow>
    <personFlow id="ped_north_east_left_w0" begin="0" end="450" personsPerHour="30" departPos="base">
        <personTrip from="-v21" to="-h13" />
    </personFlow>
    <personFlow id="ped_north_east_right_w0" begin="0" end="450" personsPerHour="13" departPos="base">
        <personTrip from="-v21" to="h11" />
    </personFlow>
    <flow id="south_west_straight_w0" from="v13" to="v11" begin="0" end="450" vehsPerHour="387" departSpeed="max" departPos="base" departLane="best" />
    <flow id="south_west_left_w0" from="v13" to="h21" begin="0" end="450" vehsPerHour="120" departSpeed="max" departPos="base" departLane="best" />
    <flow id="south_west_right_w0" from="v13" to="-h23" begin="0" end="450" vehsPerHour="73" departSpeed="max" departPos="base" departLane="best" />
    <personFlow id="ped_south_west_straight_w0" begin="0" end="450" personsPerHour="69" departPos="base">
        <personTrip from="v13" to="v11" />
    </personFlow>
    <personFlow id="ped_south_west_left_w0" begin="0" end="450" personsPerHour="28" departPos="base">
        <personTrip from="v13" to="h21" />
    </personFlow>
    <personFlow id="ped_south_west_right_w0" begin="0" end="450" personsPerHour="40" departPos="base">
        <personTrip from="v13" to="-h23" />
    </personFlow>
    <flow id="south_east_straight_w0" from="v23" to="v21" begin="0" end="450" vehsPerHour="233" departSpeed="max" departPos="base" departLane="best" />
    <flow id="south_east_left_w0" from="v23" to="h21" begin="0" end="450" vehsPerHour="101" departSpeed="max" departPos="base" departLane="best" />
    <flow id="south_east_right_w0" from="v23" to="-h23" begin="0" end="450" vehsPerHour="65" departSpeed="max" departPos="base" departLane="best" />
    <personFlow id="ped_south_east_straight_w0" begin="0" end="450" personsPerHour="66" departPos="base">
        <personTrip from="v23" to="v21" />
    </personFlow>
    <personFlow id="ped_south_east_left_w0" begin="0" end="450" personsPerHour="19" departPos="base">
        <personTrip from="v23" to="h21" />
    </personFlow>
    <personFlow id="ped_south_east_right_w0" begin="0" end="450" personsPerHour="22" departPos="base">
        <personTrip from="v23" to="-h23" />
    </personFlow>
    <flow id="west_north_straight_w1" from="-h11" to="-h13" begin="450" end="900" vehsPerHour="668" departSpeed="max" departPos="base" departLane="best" />
    <flow id="west_north_left_w1" from="-h11" to="v11" begin="450" end="900" vehsPerHour="56" departSpeed="max" departPos="base" departLane="best" />
    <flow id="west_north_right_w1" from="-h11" to="-v13" begin="450" end="900" vehsPerHour="117" departSpeed="max" departPos="base" departLane="best" />
    <personFlow id="ped_west_north_straight_w1" begin="450" end="900" personsPerHour="67" departPos="base">
        <personTrip from="-h11" to="-h13" />
    </personFlow>
    <personFlow id="ped_west_north_left_w1" begin="450" end="900" personsPerHour="9" departPos="base">
        <personTrip from="-h11" to="v11" />
    </personFlow>
    <personFlow id="ped_west_north_right_w1" begin="450" end="900" personsPerHour="11" departPos="base">
        <personTrip from="-h11" to="-v13" />
    </personFlow>
    <flow id="west_south_straight_w1" from="-h21" to="-h23" begin="450" end="900" vehsPerHour="377" departSpeed="max" departPos="base" departLane="best" />
    <flow id="west_south_left_w1" from="-h21" to="v11" begin="450" end="900" vehsPerHour="105" departSpeed="max" departPos="base" departLane="best" />
    <flow id="west_south_right_w1" from="-h21" to="-v13" begin="450" end="900" vehsPerHour="149" departSpeed="max" departPos="base" departLane="best" />
    <personFlow id="ped_west_south_straight_w1" begin="450" end="900" personsPerHour="82" departPos="base">
        <personTrip from="-h21" to="-h23" />
    </personFlow>
    <personFlow id="ped_west_south_left_w1" begin="450" end="900" personsPerHour="24" departPos="base">
        <personTrip from="-h21" to="v11" />
    </personFlow>
    <personFlow id="ped_west_south_right_w1" begin="450" end="900" personsPerHour="45" departPos="base">
        <personTrip from="-h21" to="-v13" />
    </personFlow>
    <flow id="east_north_straight_w1" from="h13" to="h11" begin="450" end="900" vehsPerHour="284" departSpeed="max" departPos="base" departLane="best" />
    <flow id="east_north_left_w1" from="h13" to="-v23" begin="450" end="900" vehsPerHour="54" departSpeed="max" departPos="base" departLane="best" />
    <flow id="east_north_right_w1" from="h13" to="v21" begin="450" end="900" vehsPerHour="198" departSpeed="max" departPos="base" departLane="best" />
    <personFlow id="ped_east_north_straight_w1" begin="450" end="900" personsPerHour="58" departPos="base">
        <personTrip from="h13" to="h11" />
    </personFlow>
    <personFlow id="ped_east_north_left_w1" begin="450" end="900" personsPerHour="31" departPos="base">
        <personTrip from="h13" to="-v23" />
    </personFlow>
    <personFlow id="ped_east_north_right_w1" begin="450" end="900" personsPerHour="25" departPos="base">
        <personTrip from="h13" to="v21" />
    </personFlow>
    <flow id="east_south_straight_w1" from="h23" to="h21" begin="450" end="900" vehsPerHour="364" departSpeed="max" departPos="base" departLane="best" />
    <flow id="east_south_left_w1" from="h23" to="-v23" begin="450" end="900" vehsPerHour="101" departSpeed="max" departPos="base" departLane="best" />
    <flow id="east_south_right_w1" from="h23" to="v21" begin="450" end="900" vehsPerHour="118" departSpeed="max" departPos="base" departLane="best" />
    <personFlow id="ped_east_south_straight_w1" begin="450" end="900" personsPerHour="60" departPos="base">
        <personTrip from="h23" to="h21" />
    </personFlow>
    <personFlow id="ped_east_south_left_w1" begin="450" end="900" personsPerHour="33" departPos="base">
        <personTrip from="h23" to="-v23" />
    </personFlow>
    <personFlow id="ped_east_south_right_w1" begin="450" end="900" personsPerHour="22" departPos="base">
        <personTrip from="h23" to="v21" />
    </personFlow>
    <flow id="north_west_straight_w1" from="-v11" to="-v13" begin="450" end="900" vehsPerHour="410" departSpeed="max" departPos="base" departLane="best" />
    <flow id="north_west_left_w1" from="-v11" to="-h13" begin="450" end="900" vehsPerHour="126" departSpeed="max" departPos="base" departLane="best" />
    <flow id="north_west_right_w1" from="-v11" to="h11" begin="450" end="900" vehsPerHour="95" departSpeed="max" departPos="base" departLane="best" />
    <personFlow id="ped_north_west_straight_w1" begin="450" end="900" personsPerHour="85" departPos="base">
        <personTrip from="-v11" to="-v13" />
    </personFlow>
    <personFlow id="ped_north_west_left_w1" begin="450" end="900" personsPerHour="39" departPos="base">
        <personTrip from="-v11" to="-h13" />
    </personFlow>
    <personFlow id="ped_north_west_right_w1" begin="450" end="900" personsPerHour="20" departPos="base">
        <personTrip from="-v11" to="h11" />
    </personFlow>
    <flow id="north_east_straight_w1" from="-v21" to="-v23" begin="450" end="900" vehsPerHour="327" departSpeed="max" departPos="base" departLane="best" />
    <flow id="north_east_left_w1" from="-v21" to="-h13" begin="450" end="900" vehsPerHour="145" departSpeed="max" departPos="base" departLane="best" />
    <flow id="north_east_right_w1" from="-v21" to="h11" begin="450" end="900" vehsPerHour="55" departSpeed="max" departPos="base" departLane="best" />
    <personFlow id="ped_north_east_straight_w1" begin="450" end="900" personsPerHour="83" departPos="base">
        <personTrip from="-v21" to="-v23" />
    </personFlow>
    <personFlow id="ped_north_east_left_w1" begin="450" end="900" personsPerHour="31" departPos="base">
        <personTrip from="-v21" to="-h13" />
    </personFlow>
    <personFlow id="ped_north_east_right_w1" begin="450" end="900" personsPerHour="23" departPos="base">
        <personTrip from="-v21" to="h11" />
    </personFlow>
    <flow id="south_west_straight_w1" from="v13" to="v11" begin="450" end="900" vehsPerHour="282" departSpeed="max" departPos="base" departLane="best" />
    <flow id="south_west_left_w1" from="v13" to="h21" begin="450" end="900" vehsPerHour="66" departSpeed="max" departPos="base" departLane="best" />
    <flow id="south_west_right_w1" from="v13" to="-h23" begin="450" end="900" vehsPerHour="172" departSpeed="max" departPos="base" departLane="best" />
    <personFlow id="ped_south_west_straight_w1" begin="450" end="900" personsPerHour="100" departPos="base">
        <personTrip from="v13" to="v11" />
    </personFlow>
    <personFlow id="ped_south_west_left_w1" begin="450" end="900" personsPerHour="24" departPos="base">
        <personTrip from="v13" to="h21" />
    </personFlow>
    <personFlow id="ped_south_west_right_w1" begin="450" end="900" personsPerHour="10" departPos="base">
        <personTrip from="v13" to="-h23" />
    </personFlow>
    <flow id="south_east_straight_w1" from="v23" to="v21" begin="450" end="900" vehsPerHour="272" departSpeed="max" departPos="base" departLane="best" />
    <flow id="south_east_left_w1" from="v23" to="h21" begin="450" end="900" vehsPerHour="116" departSpeed="max" departPos="base" departLane="best" />
    <flow id="south_east_right_w1" from="v23" to="-h23" begin="450" end="900" vehsPerHour="52" departSpeed="max" departPos="base" departLane="best" />
    <personFlow id="ped_south_east_straight_w1" begin="450" end="900" personsPerHour="73" departPos="base">
        <personTrip from="v23" to="v21" />
    </personFlow>
    <personFlow id="ped_south_east_left_w1" begin="450" end="900" personsPerHour="23" departPos="base">
        <personTrip from="v23" to="h21" />
    </personFlow>
    <personFlow id="ped_south_east_right_w1" begin="450" end="900" personsPerHour="17" departPos="base">
        <personTrip from="v23" to="-h23" />
    </personFlow>
    <flow id="west_north_straight_w2" from="-h11" to="-h13" begin="900" end="1350" vehsPerHour="265" departSpeed="max" departPos="base" departLane="best" />
    <flow id="west_north_left_w2" from="-h11" to="v11" begin="900" end="1350" vehsPerHour="137" departSpeed="max" departPos="base" departLane="best" />
    <flow id="west_north_right_w2" from="-h11" to="-v13" begin="900" end="1350" vehsPerHour="34" departSpeed="max" departPos="base" departLane="best" />
    <personFlow id="ped_west_north_straight_w2" begin="900" end="1350" personsPerHour="74" departPos="base">
        <personTrip from="-h11" to="-h13" />
    </personFlow>
    <personFlow id="ped_west_north_left_w2" begin="900" end="1350" personsPerHour="25" departPos="base">
        <personTrip from="-h11" to="v11" />
    </personFlow>
    <personFlow id="ped_west_north_right_w2" begin="900" end="1350" personsPerHour="27" departPos="base">
        <personTrip from="-h11" to="-v13" />
    </personFlow>
    <flow id="west_south_straight_w2" from="-h21" to="-h23" begin="900" end="1350" vehsPerHour="319" departSpeed="max" departPos="base" departLane="best" />
    <flow id="west_south_left_w2" from="-h21" to="v11" begin="900" end="1350" vehsPerHour="187" departSpeed="max" departPos="base" departLane="best" />
    <flow id="west_south_right_w2" from="-h21" to="-v13" begin="900" end="1350" vehsPerHour="104" departSpeed="max" departPos="base" departLane="best" />
    <personFlow id="ped_west_south_straight_w2" begin="900" end="1350" personsPerHour="88" departPos="base">
        <personTrip from="-h21" to="-h23" />
    </personFlow>
    <personFlow id="ped_west_south_left_w2" begin="900" end="1350" personsPerHour="12" departPos="base">
        <personTrip from="-h21" to="v11" />
    </personFlow>
    <personFlow id="ped_west_south_right_w2" begin="900" end="1350" personsPerHour="19" departPos="base">
        <personTrip from="-h21" to="-v13" />
    </personFlow>
    <flow id="east_north_straight_w2" from="h13" to="h11" begin="900" end="1350" vehsPerHour="377" departSpeed="max" departPos="base" departLane="best" />
    <flow id="east_north_left_w2" from="h13" to="-v23" begin="900" end="1350" vehsPerHour="115" departSpeed="max" departPos="base" departLane="best" />
    <flow id="east_north_right_w2" from="h13" to="v21" begin="900" end="1350" vehsPerHour="93" departSpeed="max" departPos="base" departLane="best" />
    <personFlow id="ped_east_north_straight_w2" begin="900" end="1350" personsPerHour="68" departPos="base">
        <personTrip from="h13" to="h11" />
    </personFlow>
    <personFlow id="ped_east_north_left_w2" begin="900" end="1350" personsPerHour="37" departPos="base">
        <personTrip from="h13" to="-v23" />
    </personFlow>
    <personFlow id="ped_east_north_right_w2" begin="900" end="1350" personsPerHour="27" departPos="base">
        <personTrip from="h13" to="v21" />
    </personFlow>
    <flow id="east_south_straight_w2" from="h23" to="h21" begin="900" end="1350" vehsPerHour="278" departSpeed="max" departPos="base" departLane="best" />
    <flow id="east_south_left_w2" from="h23" to="-v23" begin="900" end="1350" vehsPerHour="157" departSpeed="max" departPos="base" departLane="best" />
    <flow id="east_south_right_w2" from="h23" to="v21" begin="900" end="1350" vehsPerHour="87" departSpeed="max" departPos="base" departLane="best" />
    <personFlow id="ped_east_south_straight_w2" begin="900" end="1350" personsPerHour="78" departPos="base">
        <personTrip from="h23" to="h21" />
    </personFlow>
    <personFlow id="ped_east_south_left_w2" begin="900" end="1350" personsPerHour="32" departPos="base">
        <personTrip from="h23" to="-v23" />
    </personFlow>
    <personFlow id="ped_east_south_right_w2" begin="900" end="1350" personsPerHour="33" departPos="base">
        <personTrip from="h23" to="v21" />
    </personFlow>
    <flow id="north_west_straight_w2" from="-v11" to="-v13" begin="900" end="1350" vehsPerHour="304" departSpeed="max" departPos="base" departLane="best" />
    <flow id="north_west_left_w2" from="-v11" to="-h13" begin="900" end="1350" vehsPerHour="216" departSpeed="max" departPos="base" departLane="best" />
    <flow id="north_west_right_w2" from="-v11" to="h11" begin="900" end="1350" vehsPerHour="102" departSpeed="max" departPos="base" departLane="best" />
    <personFlow id="ped_north_west_straight_w2" begin="900" end="1350" personsPerHour="57" departPos="base">
        <personTrip from="-v11" to="-v13" />
    </personFlow>
    <personFlow id="ped_north_west_left_w2" begin="900" end="1350" personsPerHour="46" departPos="base">
        <personTrip from="-v11" to="-h13" />
    </personFlow>
    <personFlow id="ped_north_west_right_w2" begin="900" end="1350" personsPerHour="52" departPos="base">
        <personTrip from="-v11" to="h11" />
    </personFlow>
    <flow id="north_east_straight_w2" from="-v21" to="-v23" begin="900" end="1350" vehsPerHour="383" departSpeed="max" departPos="base" departLane="best" />
    <flow id="north_east_left_w2" from="-v21" to="-h13" begin="900" end="1350" vehsPerHour="91" departSpeed="max" departPos="base" departLane="best" />
    <flow id="north_east_right_w2" from="-v21" to="h11" begin="900" end="1350" vehsPerHour="78" departSpeed="max" departPos="base" departLane="best" />
    <personFlow id="ped_north_east_straight_w2" begin="900" end="1350" personsPerHour="94" departPos="base">
        <personTrip from="-v21" to="-v23" />
    </personFlow>
    <personFlow id="ped_north_east_left_w2" begin="900" end="1350" personsPerHour="8" departPos="base">
        <personTrip from="-v21" to="-h13" />
    </personFlow>
    <personFlow id="ped_north_east_right_w2" begin="900" end="1350" personsPerHour="26" departPos="base">
        <personTrip from="-v21" to="h11" />
    </personFlow>
    <flow id="south_west_straight_w2" from="v13" to="v11" begin="900" end="1350" vehsPerHour="318" departSpeed="max" departPos="base" departLane="best" />
    <flow id="south_west_left_w2" from="v13" to="h21" begin="900" end="1350" vehsPerHour="41" departSpeed="max" departPos="base" departLane="best" />
    <flow id="south_west_right_w2" from="v13" to="-h23" begin="900" end="1350" vehsPerHour="132" departSpeed="max" departPos="base" departLane="best" />
    <personFlow id="ped_south_west_straight_w2" begin="900" end="1350" personsPerHour="109" departPos="base">
        <personTrip from="v13" to="v11" />
    </personFlow>
    <personFlow id="ped_south_west_left_w2" begin="900" end="1350" personsPerHour="15" departPos="base">
        <personTrip from="v13" to="h21" />
    </personFlow>
    <personFlow id="ped_south_west_right_w2" begin="900" end="1350" personsPerHour="24" departPos="base">
        <personTrip from="v13" to="-h23" />
    </personFlow>
    <flow id="south_east_straight_w2" from="v23" to="v21" begin="900" end="1350" vehsPerHour="400" departSpeed="max" departPos="base" departLane="best" />
    <flow id="south_east_left_w2" from="v23" to="h21" begin="900" end="1350" vehsPerHour="128" departSpeed="max" departPos="base" departLane="best" />
    <flow id="south_east_right_w2" from="v23" to="-h23" begin="900" end="1350" vehsPerHour="98" departSpeed="max" departPos="base" departLane="best" />
    <personFlow id="ped_south_east_straight_w2" begin="900" end="1350" personsPerHour="64" departPos="base">
        <personTrip from="v23" to="v21" />
    </personFlow>
    <personFlow id="ped_south_east_left_w2" begin="900" end="1350" personsPerHour="15" departPos="base">
        <personTrip from="v23" to="h21" />
    </personFlow>
    <personFlow id="ped_south_east_right_w2" begin="900" end="1350" personsPerHour="22" departPos="base">
        <personTrip from="v23" to="-h23" />
    </personFlow>
    <flow id="west_north_straight_w3" from="-h11" to="-h13" begin="1350" end="1800" vehsPerHour="281" departSpeed="max" departPos="base" departLane="best" />
    <flow id="west_north_left_w3" from="-h11" to="v11" begin="1350" end="1800" vehsPerHour="122" departSpeed="max" departPos="base" departLane="best" />
    <flow id="west_north_right_w3" from="-h11" to="-v13" begin="1350" end="1800" vehsPerHour="162" departSpeed="max" departPos="base" departLane="best" />
    <personFlow id="ped_west_north_straight_w3" begin="1350" end="1800" personsPerHour="41" departPos="base">
        <personTrip from="-h11" to="-h13" />
    </personFlow>
    <personFlow id="ped_west_north_left_w3" begin="1350" end="1800" personsPerHour="19" departPos="base">
        <personTrip from="-h11" to="v11" />
    </personFlow>
    <personFlow id="ped_west_north_right_w3" begin="1350" end="1800" personsPerHour="6" departPos="base">
        <personTrip from="-h11" to="-v13" />
    </personFlow>
    <flow id="west_south_straight_w3" from="-h21" to="-h23" begin="1350" end="1800" vehsPerHour="255" departSpeed="max" departPos="base" departLane="best" />
    <flow id="west_south_left_w3" from="-h21" to="v11" begin="1350" end="1800" vehsPerHour="82" departSpeed="max" departPos="base" departLane="best" />
    <flow id="west_south_right_w3" from="-h21" to="-v13" begin="1350" end="1800" vehsPerHour="81" departSpeed="max" departPos="base" departLane="best" />
    <personFlow id="ped_west_south_straight_w3" begin="1350" end="1800" personsPerHour="51" departPos="base">
        <personTrip from="-h21" to="-h23" />
    </personFlow>
    <personFlow id="ped_west_south_left_w3" begin="1350" end="1800" personsPerHour="33" departPos="base">
        <personTrip from="-h21" to="v11" />
    </personFlow>
    <personFlow id="ped_west_south_right_w3" begin="1350" end="1800" personsPerHour="9" departPos="base">
        <personTrip from="-h21" to="-v13" />
    </personFlow>
    <flow id="east_north_straight_w3" from="h13" to="h11" begin="1350" end="1800" vehsPerHour="263" departSpeed="max" departPos="base" departLane="best" />
    <flow id="east_north_left_w3" from="h13" to="-v23" begin="1350" end="1800" vehsPerHour="124" departSpeed="max" departPos="base" departLane="best" />
    <flow id="east_north_right_w3" from="h13" to="v21" begin="1350" end="1800" vehsPerHour="76" departSpeed="max" departPos="base" departLane="best" />
    <personFlow id="ped_east_north_straight_w3" begin="1350" end="1800" personsPerHour="63" departPos="base">
        <personTrip from="h13" to="h11" />
    </personFlow>
    <personFlow id="ped_east_north_left_w3" begin="1350" end="1800" personsPerHour="11" departPos="base">
        <personTrip from="h13" to="-v23" />
    </personFlow>
    <personFlow id="ped_east_north_right_w3" begin="1350" end="1800" personsPerHour="18" departPos="base">
        <personTrip from="h13" to="v21" />
    </personFlow>
    <flow id="east_south_straight_w3" from="h23" to="h21" begin="1350" end="1800" vehsPerHour="217" departSpeed="max" departPos="base" departLane="best" />
    <flow id="east_south_left_w3" from="h23" to="-v23" begin="1350" end="1800" vehsPerHour="80" departSpeed="max" departPos="base" departLane="best" />
    <flow id="east_south_right_w3" from="h23" to="v21" begin="1350" end="1800" vehsPerHour="114" departSpeed="max" departPos="base" departLane="best" />
    <personFlow id="ped_east_south_straight_w3" begin="1350" end="1800" personsPerHour="50" departPos="base">
        <personTrip from="h23" to="h21" />
    </personFlow>
    <personFlow id="ped_east_south_left_w3" begin="1350" end="1800" personsPerHour="26" departPos="base">
        <personTrip from="h23" to="-v23" />
    </personFlow>
    <personFlow id="ped_east_south_right_w3" begin="1350" end="1800" personsPerHour="28" departPos="base">
        <personTrip from="h23" to="v21" />
    </personFlow>
    <flow id="north_west_straight_w3" from="-v11" to="-v13" begin="1350" end="1800" vehsPerHour="409" departSpeed="max" departPos="base" departLane="best" />
    <flow id="north_west_left_w3" from="-v11" to="-h13" begin="1350" end="1800" vehsPerHour="43" departSpeed="max" departPos="base" departLane="best" />
    <flow id="north_west_right_w3" from="-v11" to="h11" begin="1350" end="1800" vehsPerHour="149" departSpeed="max" departPos="base" departLane="best" />
    <personFlow id="ped_north_west_straight_w3" begin="1350" end="1800" personsPerHour="71" departPos="base">
        <personTrip from="-v11" to="-v13" />
    </personFlow>
    <personFlow id="ped_north_west_left_w3" begin="1350" end="1800" personsPerHour="17" departPos="base">
        <personTrip from="-v11" to="-h13" />
    </personFlow>
    <personFlow id="ped_north_west_right_w3" begin="1350" end="1800" personsPerHour="27" departPos="base">
        <personTrip from="-v11" to="h11" />
    </personFlow>
    <flow id="north_east_straight_w3" from="-v21" to="-v23" begin="1350" end="1800" vehsPerHour="204" departSpeed="max" departPos="base" departLane="best" />
    <flow id="north_east_left_w3" from="-v21" to="-h13" begin="1350" end="1800" vehsPerHour="82" departSpeed="max" departPos="base" departLane="best" />
    <flow id="north_east_right_w3" from="-v21" to="h11" begin="1350" end="1800" vehsPerHour="117" departSpeed="max" departPos="base" departLane="best" />
    <personFlow id="ped_north_east_straight_w3" begin="1350" end="1800" personsPerHour="80" departPos="base">
        <personTrip from="-v21" to="-v23" />
    </personFlow>
    <personFlow id="ped_north_east_left_w3" begin="1350" end="1800" personsPerHour="27" departPos="base">
        <personTrip from="-v21" to="-h13" />
    </personFlow>
    <personFlow id="ped_north_east_right_w3" begin="1350" end="1800" personsPerHour="15" departPos="base">
        <personTrip from="-v21" to="h11" />
    </personFlow>
    <flow id="south_west_straight_w3" from="v13" to="v11" begin="1350" end="1800" vehsPerHour="351" departSpeed="max" departPos="base" departLane="best" />
    <flow id="south_west_left_w3" from="v13" to="h21" begin="1350" end="1800" vehsPerHour="96" departSpeed="max" departPos="base" departLane="best" />
    <flow id="south_west_right_w3" from="v13" to="-h23" begin="1350" end="1800" vehsPerHour="62" departSpeed="max" departPos="base" departLane="best" />
    <personFlow id="ped_south_west_straight_w3" begin="1350" end="1800" personsPerHour="68" departPos="base">
        <personTrip from="v13" to="v11" />
    </personFlow>
    <personFlow id="ped_south_west_left_w3" begin="1350" end="1800" personsPerHour="18" departPos="base">
        <personTrip from="v13" to="h21" />
    </personFlow>
    <personFlow id="ped_south_west_right_w3" begin="1350" end="1800" personsPerHour="31" departPos="base">
        <personTrip from="v13" to="-h23" />
    </personFlow>
    <flow id="south_east_straight_w3" from="v23" to="v21" begin="1350" end="1800" vehsPerHour="329" departSpeed="max" departPos="base" departLane="best" />