<routes>
    <flow id="west_north_straight_w0" from="-h11" to="-h13" begin="0" end="450" vehsPerHour="259" departSpeed="max" departPos="base" departLane="best" />
    <flow id="west_north_left_w0" from="-h11" to="v11" begin="0" end="450" vehsPerHour="198" departSpeed="max" departPos="base" departLane="best" />
    <flow id="west_north_right_w0" from="-h11" to="-v13" begin="0" end="450" vehsPerHour="225" departSpeed="max" departPos="base" departLane="best" />
    <personFlow id="ped_west_north_straight_w0" begin="0" end="450" personsPerHour="63" departPos="base">
        <personTrip from="-h11" to="-h13" />
    </personFlow>
    <personFlow id="ped_west_north_left_w0" begin="0" end="450" personsPerHour="28" departPos="base">
        <personTrip from="-h11" to="v11" />
    </personFlow>
    <personFlow id="ped_west_north_right_w0" begin="0" end="450" personsPerHour="21" departPos="base">
        <personTrip from="-h11" to="-v13" />
    </personFlow>
    <flow id="west_south_straight_w0" from="-h21" to="-h23" begin="0" end="450" vehsPerHour="390" departSpeed="max" departPos="base" departLane="best" />
    <flow id="west_south_left_w0" from="-h21" to="v11" begin="0" end="450" vehsPerHour="59" departSpeed="max" departPos="base" departLane="best" />
    <flow id="west_south_right_w0" from="-h21" to="-v13" begin="0" end="450" vehsPerHour="128" departSpeed="max" departPos="base" departLane="best" />
    <personFlow id="ped_west_south_straight_w0" begin="0" end="450" personsPerHour="86" departPos="base">
        <personTrip from="-h21" to="-h23" />
    </personFlow>
    <personFlow id="ped_west_south_left_w0" begin="0" end="450" personsPerHour="20" departPos="base">
        <personTrip from="-h21" to="v11" />
    </personFlow>
    <personFlow id="ped_west_south_right_w0" begin="0" end="450" personsPerHour="12" departPos="base">
        <personTrip from="-h21" to="-v13" />
    </personFlow>
    <flow id="east_north_straight_w0" from="h13" to="h11" begin="0" end="450" vehsPerHour="271" departSpeed="max" departPos="base" departLane="best" />
    <flow id="east_north_left_w0" from="h13" to="-v23" begin="0" end="450" vehsPerHour="88" departSpeed="max" departPos="base" departLane="best" />
    <flow id="east_north_right_w0" from="h13" to="v21" begin="0" end="450" vehsPerHour="56" departSpeed="max" departPos="base" departLane="best" />
    <personFlow id="ped_east_north_straight_w0" begin="0" end="450" personsPerHour="79" departPos="base">
        <personTrip from="h13" to="h11" />
    </personFlow>
    <personFlow id="ped_east_north_left_w0" begin="0" end="450" personsPerHour="18" departPos="base">
        <personTrip from="h13" to="-v23" />
    </personFlow>
    <personFlow id="ped_east_north_right_w0" begin="0" end="450" personsPerHour="26" departPos="base">
        <personTrip from="h13" to="v21" />
    </personFlow>
    <flow id="east_south_straight_w0" from="h23" to="h21" begin="0" end="450" vehsPerHour="258" departSpeed="max" departPos="base" departLane="best" />
    <flow id="east_south_left_w0" from="h23" to="-v23" begin="0" end="450" vehsPerHour="109" departSpeed="max" departPos="base" departLane="best" />
    <flow id="east_south_right_w0" from="h23" to="v21" begin="0" end="450" vehsPerHour="111" departSpeed="max" departPos="base" departLane="best" />
    <personFlow id="ped_east_south_straight_w0" begin="0" end="450" personsPerHour="73" departPos="base">
        <personTrip from="h23" to="h21" />
    </personFlow>
    <personFlow id="ped_east_south_left_w0" begin="0" end="450" personsPerHour="22" departPos="base">
        <personTrip from="h23" to="-v23" />
    </personFlow>
    <personFlow id="ped_east_south_right_w0" begin="0" end="450" personsPerHour="25" departPos="base">
        <personTrip from="h23" to="v21" />
    </personFlow>
    <flow id="north_west_straight_w0" from="-v11" to="-v13" begin="0" end="450" vehsPerHour="399" departSpeed="max" departPos="base" departLane="best" />
    <flow id="north_west_left_w0" from="-v11" to="-h13" begin="0" end="450" vehsPerHour="101" departSpeed="max" departPos="base" departLane="best" />
    <flow id="north_west_right_w0" from="-v11" to="h11" begin="0" end="450" vehsPerHour="91" departSpeed="max" departPos="base" departLane="best" />
    <personFlow id="ped_north_west_straight_w0" begin="0" end="450" personsPerHour="60" departPos="base">
        <personTrip from="-v11" to="-v13" />
    </personFlow>
    <personFlow id="ped_north_west_left_w0" begin="0" end="450" personsPerHour="36" departPos="base">
        <personTrip from="-v11" to="-h13" />
    </personFlow>
    <personFlow id="ped_north_west_right_w0" begin="0" end="450" personsPerHour="5" departPos="base">
        <personTrip from="-v11" to="h11" />
    </personFlow>
    <flow id="north_east_straight_w0" from="-v21" to="-v23" begin="0" end="450" vehsPerHour="204" departSpeed="max" departPos="base" departLane="best" />
    <flow id="north_east_left_w0" from="-v21" to="-h13" begin="0" end="450" vehsPerHour="174" departSpeed="max" departPos="base" departLane="best" />
    <flow id="north_east_right_w0" from="-v21" to="h11" begin="0" end="450" vehsPerHour="64" departSpeed="max" departPos="base" departLane="best" />
    <personFlow id="ped_north_east_straight_w0" begin="0" end="450" personsPerHour="78" departPos="base">
        <personTrip from="-v21" to="-v23" />
    </personFlow>
    <personFlow id="ped_north_east_left_w0" begin="0" end="450" personsPerHour="24" departPos="base">
        <personTrip from="-v21" to="-h13" />
    </personFlow>
    <personFlow id="ped_north_east_right_w0" begin="0" end="450" personsPerHour="10" departPos="base">
        <personTrip from="-v21" to="h11" />
    </personFlow>
    <flow id="south_west_straight_w0" from="v13" to="v11" begin="0" end="450" vehsPerHour="463" departSpeed="max" departPos="base" departLane="best" />
    <flow id="south_west_left_w0" from="v13" to="h21" begin="0" end="450" vehsPerHour="77" departSpeed="max" departPos="base" departLane="best" />
    <flow id="south_west_right_w0" from="v13" to="-h23" begin="0" end="450" vehsPerHour="71" departSpeed="max" departPos="base" departLane="best" />
    <personFlow id="ped_south_west_straight_w0" begin="0" end="450" personsPerHour="79" departPos="base">
        <personTrip from="v13" to="v11" />
    </personFlow>
    <personFlow id="ped_south_west_left_w0" begin="0" end="450" personsPerHour="22" departPos="base">
        <personTrip from="v13" to="h21" />
    </personFlow>
    <personFlow id="ped_south_west_right_w0" begin="0" end="450" personsPerHour="42" departPos="base">
        <personTrip from="v13" to="-h23" />
    </personFlow>
    <flow id="south_east_straight_w0" from="v23" to="v21" begin="0" end="450" vehsPerHour="279" departSpeed="max" departPos="base" departLane="best" />
    <flow id="south_east_left_w0" from="v23" to="h21" begin="0" end="450" vehsPerHour="168" departSpeed="max" departPos="base" departLane="best" />
    <flow id="south_east_right_w0" from="v23" to="-h23" begin="0" end="450" vehsPerHour="46" departSpeed="max" departPos="base" departLane="best" />
    <personFlow id="ped_south_east_straight_w0" begin="0" end="450" personsPerHour="63" departPos="base">
        <personTrip from="v23" to="v21" />
    </personFlow>
    <personFlow id="ped_south_east_left_w0" begin="0" end="450" personsPerHour="16" departPos="base">
        <personTrip from="v23" to="h21" />
    </personFlow>
    <personFlow id="ped_south_east_right_w0" begin="0" end="450" personsPerHour="18" departPos="base">
        <personTrip from="v23" to="-h23" />
    </personFlow>
    <flow id="west_north_straight_w1" from="-h11" to="-h13" begin="450" end="900" vehsPerHour="353" departSpeed="max" departPos="base" departLane="best" />
    <flow id="west_north_left_w1" from="-h11" to="v11" begin="450" end="900" vehsPerHour="171" departSpeed="max" departPos="base" departLane="best" />
    <flow id="west_north_right_w1" from="-h11" to="-v13" begin="450" end="900" vehsPerHour="80" departSpeed="max" departPos="base" departLane="best" />
    <personFlow id="ped_west_north_straight_w1" begin="450" end="900" personsPerHour="93" departPos="base">
        <personTrip from="-h11" to="-h13" />
    </personFlow>
    <personFlow id="ped_west_north_left_w1" begin="450" end="900" personsPerHour="27" departPos="base">
        <personTrip from="-h11" to="v11" />
    </personFlow>
    <personFlow id="ped_west_north_right_w1" begin="450" end="900" personsPerHour="31" departPos="base">
        <personTrip from="-h11" to="-v13" />
    </personFlow>
    <flow id="west_south_straight_w1" from="-h21" to="-h23" begin="450" end="900" vehsPerHour="444" departSpeed="max" departPos="base" departLane="best" />
    <flow id="west_south_left_w1" from="-h21" to="v11" begin="450" end="900" vehsPerHour="124" departSpeed="max" departPos="base" departLane="best" />
    <flow id="west_south_right_w1" from="-h21" to="-v13" begin="450" end="900" vehsPerHour="47" departSpeed="max" departPos="base" departLane="best" />
    <personFlow id="ped_west_south_straight_w1" begin="450" end="900" personsPerHour="94" departPos="base">
        <personTrip from="-h21" to="-h23" />
    </personFlow>
    <personFlow id="ped_west_south_left_w1" begin="450" end="900" personsPerHour="21" departPos="base">
        <personTrip from="-h21" to="v11" />
    </personFlow>
    <personFlow id="ped_west_south_right_w1" begin="450" end="900" personsPerHour="27" departPos="base">
        <personTrip from="-h21" to="-v13" />
    </personFlow>
    <flow id="east_north_straight_w1" from="h13" to="h11" begin="450" end="900" vehsPerHour="299" departSpeed="max" departPos="base" departLane="best" />
    <flow id="east_north_left_w1" from="h13" to="-v23" begin="450" end="900" vehsPerHour="78" departSpeed="max" departPos="base" departLane="best" />
    <flow id="east_north_right_w1" from="h13" to="v21" begin="450" end="900" vehsPerHour="89" departSpeed="max" departPos="base" departLane="best" />
    <personFlow id="ped_east_north_straight_w1" begin="450" end="900" personsPerHour="90" departPos="base">
        <personTrip from="h13" to="h11" />
    </personFlow>
    <personFlow id="ped_east_north_left_w1" begin="450" end="900" personsPerHour="32" departPos="base">
        <personTrip from="h13" to="-v23" />
    </personFlow>
    <personFlow id="ped_east_north_right_w1" begin="450" end="900" personsPerHour="22" departPos="base">
        <personTrip from="h13" to="v21" />
    </personFlow>
    <flow id="east_south_straight_w1" from="h23" to="h21" begin="450" end="900" vehsPerHour="241" departSpeed="max" departPos="base" departLane="best" />
    <flow id="east_south_left_w1" from="h23" to="-v23" begin="450" end="900" vehsPerHour="270" departSpeed="max" departPos="base" departLane="best" />
    <flow id="east_south_right_w1" from="h23" to="v21" begin="450" end="900" vehsPerHour="100" departSpeed="max" departPos="base" departLane="best" />
    <personFlow id="ped_east_south_straight_w1" begin="450" end="900" personsPerHour="52" departPos="base">
        <personTrip from="h23" to="h21" />
    </personFlow>
    <personFlow id="ped_east_south_left_w1" begin="450" end="900" personsPerHour="16" departPos="base">
        <personTrip from="h23" to="-v23" />
    </personFlow>
    <personFlow id="ped_east_south_right_w1" begin="450" end="900" personsPerHour="47" departPos="base">
        <personTrip from="h23" to="v21" />
    </personFlow>
    <flow id="north_west_straight_w1" from="-v11" to="-v13" begin="450" end="900" vehsPerHour="345" departSpeed="max" departPos="base" departLane="best" />
    <flow id="north_west_left_w1" from="-v11" to="-h13" begin="450" end="900" vehsPerHour="182" departSpeed="max" departPos="base" departLane="best" />
    <flow id="north_west_right_w1" from="-v11" to="h11" begin="450" end="900" vehsPerHour="151" departSpeed="max" departPos="base" departLane="best" />
    <personFlow id="ped_north_west_straight_w1" begin="450" end="900" personsPerHour="55" departPos="base">
        <personTrip from="-v11" to="-v13" />
    </personFlow>
    <personFlow id="ped_north_west_left_w1" begin="450" end="900" personsPerHour="24" departPos="base">
        <personTrip from="-v11" to="-h13" />
    </personFlow>
    <personFlow id="ped_north_west_right_w1" begin="450" end="900" personsPerHour="25" departPos="base">
        <personTrip from="-v11" to="h11" />
    </personFlow>
    <flow id="north_east_straight_w1" from="-v21" to="-v23" begin="450" end="900" vehsPerHour="497" departSpeed="max" departPos="base" departLane="best" />
    <flow id="north_east_left_w1" from="-v21" to="-h13" begin="450" end="900" vehsPerHour="49" departSpeed="max" departPos="base" departLane="best" />
    <flow id="north_east_right_w1" from="-v21" to="h11" begin="450" end="900" vehsPerHour="190" departSpeed="max" departPos="base" departLane="best" />
    <personFlow id="ped_north_east_straight_w1" begin="450" end="900" personsPerHour="74" departPos="base">
        <personTrip from="-v21" to="-v23" />
    </personFlow>
    <personFlow id="ped_north_east_left_w1" begin="450" end="900" personsPerHour="25" departPos="base">
        <personTrip from="-v21" to="-h13" />
    </personFlow>
    <personFlow id="ped_north_east_right_w1" begin="450" end="900" personsPerHour="18" departPos="base">
        <personTrip from="-v21" to="h11" />
    </personFlow>
    <flow id="south_west_straight_w1" from="v13" to="v11" begin="450" end="900" vehsPerHour="243" departSpeed="max" departPos="base" departLane="best" />
    <flow id="south_west_left_w1" from="v13" to="h21" begin="450" end="900" vehsPerHour="83" departSpeed="max" departPos="base" departLane="best" />
    <flow id="south_west_right_w1" from="v13" to="-h23" begin="450" end="900" vehsPerHour="161" departSpeed="max" departPos="base" departLane="best" />
    <personFlow id="ped_south_west_straight_w1" begin="450" end="900" personsPerHour="68" departPos="base">
        <personTrip from="v13" to="v11" />
    </personFlow>
    <personFlow id="ped_south_west_left_w1" begin="450" end="900" personsPerHour="17" departPos="base">
        <personTrip from="v13" to="h21" />
    </personFlow>
    <personFlow id="ped_south_west_right_w1" begin="450" end="900" personsPerHour="16" departPos="base">
        <personTrip from="v13" to="-h23" />
    </personFlow>
    <flow id="south_east_straight_w1" from="v23" to="v21" begin="450" end="900" vehsPerHour="226" departSpeed="max" departPos="base" departLane="best" />
    <flow id="south_east_left_w1" from="v23" to="h21" begin="450" end="900" vehsPerHour="94" departSpeed="max" departPos="base" departLane="best" />
    <flow id="south_east_right_w1" from="v23" to="-h23" begin="450" end="900" vehsPerHour="82" departSpeed="max" departPos="base" departLane="best" />
    <personFlow id="ped_south_east_straight_w1" begin="450" end="900" personsPerHour="76" departPos="base">
        <personTrip from="v23" to="v21" />
    </personFlow>
    <personFlow id="ped_south_east_left_w1" begin="450" end="900" personsPerHour="28" departPos="base">
        <personTrip from="v23" to="h21" />
    </personFlow>
    <personFlow id="ped_south_east_right_w1" begin="450" end="900" personsPerHour="23" departPos="base">
        <personTrip from="v23" to="-h23" />
    </personFlow>
    <flow id="west_north_straight_w2" from="-h11" to="-h13" begin="900" end="1350" vehsPerHour="565" departSpeed="max" departPos="base" departLane="best" />
    <flow id="west_north_left_w2" from="-h11" to="v11" begin="900" end="1350" vehsPerHour="76" departSpeed="max" departPos="base" departLane="best" />
    <flow id="west_north_right_w2" from="-h11" to="-v13" begin="900" end="1350" vehsPerHour="70" departSpeed="max" departPos="base" departLane="best" />
    <personFlow id="ped_west_north_straight_w2" begin="900" end="1350" personsPerHour="105" departPos="base">
        <personTrip from="-h11" to="-h13" />
    </personFlow>
    <personFlow id="ped_west_north_left_w2" begin="900" end="1350" personsPerHour="33" departPos="base">
        <personTrip from="-h11" to="v11" />
    </personFlow>
    <personFlow id="ped_west_north_right_w2" begin="900" end="1350" personsPerHour="28" departPos="base">
        <personTrip from="-h11" to="-v13" />
    </personFlow>
    <flow id="west_south_straight_w2" from="-h21" to="-h23" begin="900" end="1350" vehsPerHour="329" departSpeed="max" departPos="base" departLane="best" />
    <flow id="west_south_left_w2" from="-h21" to="v11" begin="900" end="1350" vehsPerHour="100" departSpeed="max" departPos="base" departLane="best" />
    <flow id="west_south_right_w2" from="-h21" to="-v13" begin="900" end="1350" vehsPerHour="184" departSpeed="max" departPos="base" departLane="best" />
    <personFlow id="ped_west_south_straight_w2" begin="900" end="1350" personsPerHour="85" departPos="base">
        <personTrip from="-h21" to="-h23" />
    </personFlow>
    <personFlow id="ped_west_south_left_w2" begin="900" end="1350" personsPerHour="34" departPos="base">
        <personTrip from="-h21" to="v11" />
    </personFlow>
    <personFlow id="ped_west_south_right_w2" begin="900" end="1350" personsPerHour="22" departPos="base">
        <personTrip from="-h21" to="-v13" />
    </personFlow>
    <flow id="east_north_straight_w2" from="h13" to="h11" begin="900" end="1350" vehsPerHour="421" departSpeed="max" departPos="base" departLane="best" />
    <flow id="east_north_left_w2" from="h13" to="-v23" begin="900" end="1350" vehsPerHour="91" departSpeed="max" departPos="base" departLane="best" />
    <flow id="east_north_right_w2" from="h13" to="v21" begin="900" end="1350" vehsPerHour="83" departSpeed="max" departPos="base" departLane="best" />
    <personFlow id="ped_east_north_straight_w2" begin="900" end="1350" personsPerHour="84" departPos="base">
        <personTrip from="h13" to="h11" />
    </personFlow>
    <personFlow id="ped_east_north_left_w2" begin="900" end="1350" personsPerHour="5" departPos="base">
        <personTrip from="h13" to="-v23" />
    </personFlow>
    <personFlow id="ped_east_north_right_w2" begin="900" end="1350" personsPerHour="39" departPos="base">
        <personTrip from="h13" to="v21" />
    </personFlow>
    <flow id="east_south_straight_w2" from="h23" to="h21" begin="900" end="1350" vehsPerHour="373" departSpeed="max" departPos="base" departLane="best" />
    <flow id="east_south_left_w2" from="h23" to="-v23" begin="900" end="1350" vehsPerHour="61" departSpeed="max" departPos="base" departLane="best" />
    <flow id="east_south_right_w2" from="h23" to="v21" begin="900" end="1350" vehsPerHour="171" departSpeed="max" departPos="base" departLane="best" />
    <personFlow id="ped_east_south_straight_w2" begin="900" end="1350" personsPerHour="49" departPos="base">
        <personTrip from="h23" to="h21" />
    </personFlow>
    <personFlow id="ped_east_south_left_w2" begin="900" end="1350" personsPerHour="14" departPos="base">
        <personTrip from="h23" to="-v23" />
    </personFlow>
    <personFlow id="ped_east_south_right_w2" begin="900" end="1350" personsPerHour="44" departPos="base">
        <personTrip from="h23" to="v21" />
    </personFlow>
    <flow id="north_west_straight_w2" from="-v11" to="-v13" begin="900" end="1350" vehsPerHour="377" departSpeed="max" departPos="base" departLane="best" />
    <flow id="north_west_left_w2" from="-v11" to="-h13" begin="900" end="1350" vehsPerHour="153" departSpeed="max" departPos="base" departLane="best" />
    <flow id="north_west_right_w2" from="-v11" to="h11" begin="900" end="1350" vehsPerHour="71" departSpeed="max" departPos="base" departLane="best" />
    <personFlow id="ped_north_west_straight_w2" begin="900" end="1350" personsPerHour="76" departPos="base">
        <personTrip from="-v11" to="-v13" />
    </personFlow>
    <personFlow id="ped_north_west_left_w2" begin="900" end="1350" personsPerHour="16" departPos="base">
        <personTrip from="-v11" to="-h13" />
    </personFlow>
    <personFlow id="ped_north_west_right_w2" begin="900" end="1350" personsPerHour="34" departPos="base">
        <personTrip from="-v11" to="h11" />
    </personFlow>
    <flow id="north_east_straight_w2" from="-v21" to="-v23" begin="900" end="1350" vehsPerHour="351" departSpeed="max" departPos="base" departLane="best" />
    <flow id="north_east_left_w2" from="-v21" to="-h13" begin="900" end="1350" vehsPerHour="184" departSpeed="max" departPos="base" departLane="best" />
    <flow id="north_east_right_w2" from="-v21" to="h11" begin="900" end="1350" vehsPerHour="74" departSpeed="max" departPos="base" departLane="best" />
    <personFlow id="ped_north_east_straight_w2" begin="900" end="1350" personsPerHour="58" departPos="base">
        <personTrip from="-v21" to="-v23" />
    </personFlow>
    <personFlow id="ped_north_east_left_w2" begin="900" end="1350" personsPerHour="18" departPos="base">
        <personTrip from="-v21" to="-h13" />
    </personFlow>
    <personFlow id="ped_north_east_right_w2" begin="900" end="1350" personsPerHour="19" departPos="base">
        <personTrip from="-v21" to="h11" />
    </personFlow>
    <flow id="south_west_straight_w2" from="v13" to="v11" begin="900" end="1350" vehsPerHour="287" departSpeed="max" departPos="base" departLane="best" />
    <flow id="south_west_left_w2" from="v13" to="h21" begin="900" end="1350" vehsPerHour="130" departSpeed="max" departPos="base" departLane="best" />
    <flow id="south_west_right_w2" from="v13" to="-h23" begin="900" end="1350" vehsPerHour="151" departSpeed="max" departPos="base" departLane="best" />
    <personFlow id="ped_south_west_straight_w2" begin="900" end="1350" personsPerHour="93" departPos="base">
        <personTrip from="v13" to="v11" />
    </personFlow>
    <personFlow id="ped_south_west_left_w2" begin="900" end="1350" personsPerHour="20" departPos="base">
        <personTrip from="v13" to="h21" />
    </personFlow>
    <personFlow id="ped_south_west_right_w2" begin="900" end="1350" personsPerHour="11" departPos="base">
        <personTrip from="v13" to="-h23" />
    </personFlow>
    <flow id="south_east_straight_w2" from="v23" to="v21" begin="900" end="1350" vehsPerHour="420" departSpeed="max" departPos="base" departLane="best" />
    <flow id="south_east_left_w2" from="v23" to="h21" begin="900" end="1350" vehsPerHour="79" departSpeed="max" departPos="base" departLane="best" />
    <flow id="south_east_right_w2" from="v23" to="-h23" begin="900" end="1350" vehsPerHour="26" departSpeed="max" departPos="base" departLane="best" />
    <personFlow id="ped_south_east_straight_w2" begin="900" end="1350" personsPerHour="102" departPos="base">
        <personTrip from="v23" to="v21" />
    </personFlow>
    <personFlow id="ped_south_east_left_w2" begin="900" end="1350" personsPerHour="28" departPos="base">
        <personTrip from="v23" to="h21" />
    </personFlow>
    <personFlow id="ped_south_east_right_w2" begin="900" end="1350" personsPerHour="6" departPos="base">
        <personTrip from="v23" to="-h23" />
    </personFlow>
    <flow id="west_north_straight_w3" from="-h11" to="-h13" begin="1350" end="1800" vehsPerHour="331" departSpeed="max" departPos="base" departLane="best" />
    <flow id="west_north_left_w3" from="-h11" to="v11" begin="1350" end="1800" vehsPerHour="70" departSpeed="max" departPos="base" departLane="best" />
    <flow id="west_north_right_w3" from="-h11" to="-v13" begin="1350" end="1800" vehsPerHour="84" departSpeed="max" departPos="base" departLane="best" />
    <personFlow id="ped_west_north_straight_w3" begin="1350" end="1800" personsPerHour="41" departPos="base">
        <personTrip from="-h11" to="-h13" />
    </personFlow>
    <personFlow id="ped_west_north_left_w3" begin="1350" end="1800" personsPerHour="25" departPos="base">
        <personTrip from="-h11" to="v11" />
    </personFlow>
    <personFlow id="ped_west_north_right_w3" begin="1350" end="1800" personsPerHour="23" departPos="base">
        <personTrip from="-h11" to="-v13" />
    </personFlow>
    <flow id="west_south_straight_w3" from="-h21" to="-h23" begin="1350" end="1800" vehsPerHour="329" departSpeed="max" departPos="base" departLane="best" />
    <flow id="west_south_left_w3" from="-h21" to="v11" begin="1350" end="1800" vehsPerHour="115" departSpeed="max" departPos="base" departLane="best" />
    <flow id="west_south_right_w3" from="-h21" to="-v13" begin="1350" end="1800" vehsPerHour="142" departSpeed="max" departPos="base" departLane="best" />
    <personFlow id="ped_west_south_straight_w3" begin="1350" end="1800" personsPerHour="75" departPos="base">
        <personTrip from="-h21" to="-h23" />
    </personFlow>
    <personFlow id="ped_west_south_left_w3" begin="1350" end="1800" personsPerHour="15" departPos="base">
        <personTrip from="-h21" to="v11" />
    </personFlow>
    <personFlow id="ped_west_south_right_w3" begin="1350" end="1800" personsPerHour="20" departPos="base">
        <personTrip from="-h21" to="-v13" />
    </personFlow>
    <flow id="east_north_straight_w3" from="h13" to="h11" begin="1350" end="1800" vehsPerHour="253" departSpeed="max" departPos="base" departLane="best" />
    <flow id="east_north_left_w3" from="h13" to="-v23" begin="1350" end="1800" vehsPerHour="124" departSpeed="max" departPos="base" departLane="best" />
    <flow id="east_north_right_w3" from="h13" to="v21" begin="1350" end="1800" vehsPerHour="103" departSpeed="max" departPos="base" departLane="best" />
    <personFlow id="ped_east_north_straight_w3" begin="1350" end="1800" personsPerHour="46" departPos="base">
        <personTrip from="h13" to="h11" />
    </personFlow>
    <personFlow id="ped_east_north_left_w3" begin="1350" end="1800" personsPerHour="25" departPos="base">
        <personTrip from="h13" to="-v23" />
    </personFlow>
    <personFlow id="ped_east_north_right_w3" begin="1350" end="1800" personsPerHour="13" departPos="base">
        <personTrip from="h13" to="v21" />
    </personFlow>
    <flow id="east_south_straight_w3" from="h23" to="h21" begin="1350" end="1800" vehsPerHour="272" departSpeed="max" departPos="base" departLane="best" />
    <flow id="east_south_left_w3" from="h23" to="-v23" begin="1350" end="1800" vehsPerHour="73" departSpeed="max" departPos="base" departLane="best" />
    <flow id="east_south_right_w3" from="h23" to="v21" begin="1350" end="1800" vehsPerHour="80" departSpeed="max" departPos="base" departLane="best" />
    <personFlow id="ped_east_south_straight_w3" begin="1350" end="1800" personsPerHour="77" departPos="base">
        <personTrip from="h23" to="h21" />
    </personFlow>
    <personFlow id="ped_east_south_left_w3" begin="1350" end="1800" personsPerHour="30" departPos="base">
        <personTrip from="h23" to="-v23" />
    </personFlow>
    <personFlow id="ped_east_south_right_w3" begin="1350" end="1800" personsPerHour="44" departPos="base">
        <personTrip from="h23" to="v21" />
    </personFlow>
    <flow id="north_west_straight_w3" from="-v11" to="-v13" begin="1350" end="1800" vehsPerHour="306" departSpeed="max" departPos="base" departLane="best" />
    <flow id="north_west_left_w3" from="-v11" to="-h13" begin="1350" end="1800" vehsPerHour="59" departSpeed="max" departPos="base" departLane="best" />
    <flow id="north_west_right_w3" from="-v11" to="h11" begin="1350" end="1800" vehsPerHour="57" departSpeed="max" departPos="base" departLane="best" />
    <personFlow id="ped_north_west_straight_w3" begin="1350" end="1800" personsPerHour="48" departPos="base">
        <personTrip from="-v11" to="-v13" />
    </personFlow>
    <personFlow id="ped_north_west_left_w3" begin="1350" end="1800" personsPerHour="38" departPos="base">
        <personTrip from="-v11" to="-h13" />
    </personFlow>
    <personFlow id="ped_north_west_right_w3" begin="1350" end="1800" personsPerHour="26" departPos="base">
        <personTrip from="-v11" to="h11" />
    </personFlow>
    <flow id="north_east_straight_w3" from="-v21" to="-v23" begin="1350" end="1800" vehsPerHour="390" departSpeed="max" departPos="base" departLane="best" />
    <flow id="north_east_left_w3" from="-v21" to="-h13" begin="1350" end="1800" vehsPerHour="83" departSpeed="max" departPos="base" departLane="best" />
    <flow id="north_east_right_w3" from="-v21" to="h11" begin="1350" end="1800" vehsPerHour="106" departSpeed="max" departPos="base" departLane="best" />
    <personFlow id="ped_north_east_straight_w3" begin="1350" end="1800" personsPerHour="51" departPos="base">
        <personTrip from="-v21" to="-v23" />
    </personFlow>
    <personFlow id="ped_north_east_left_w3" begin="1350" end="1800" personsPerHour="38" departPos="base">
        <personTrip from="-v21" to="-h13" />
    </personFlow>
    <personFlow id="ped_north_east_right_w3" begin="1350" end="1800" personsPerHour="11" departPos="base">
        <personTrip from="-v21" to="h11" />
    </personFlow>
    <flow id="south_west_straight_w3" from="v13" to="v11" begin="1350" end="1800" vehsPerHour="303" departSpeed="max" departPos="base" departLane="best" />
    <flow id="south_west_left_w3" from="v13" to="h21" begin="1350" end="1800" vehsPerHour="101" departSpeed="max" departPos="base" departLane="best" />
    <flow id="south_west_right_w3" from="v13" to="-h23" begin="1350" end="1800" vehsPerHour="76" departSpeed="max" departPos="base" departLane="best" />
    <personFlow id="ped_south_west_straight_w3" begin="1350" end="1800" personsPerHour="51" departPos="base">
        <personTrip from="v13" to="v11" />
    </personFlow>
    <personFlow id="ped_south_west_left_w3" begin="1350" end="1800" personsPerHour="39" departPos="base">
        <personTrip from="v13" to="h21" />
    </personFlow>
    <personFlow id="ped_south_west_right_w3" begin="1350" end="1800" personsPerHour="28" departPos="base">
        <personTrip from="v13" to="-h23" />
    </personFlow>
    <flow id="south_east_straight_w3" from="v23" to="v21" begin="1350" end="1800" vehsPerHour="372" departSpeed="max" departPos="base" departLane="best" />