<routes>
    <flow id="west_north_straight_w0" from="-h11" to="-h13" begin="0" end="450" vehsPerHour="379" departSpeed="max" departPos="base" departLane="best" />
    <flow id="west_north_left_w0" from="-h11" to="v11" begin="0" end="450" vehsPerHour="72" departSpeed="max" departPos="base" departLane="best" />
    <flow id="west_north_right_w0" from="-h11" to="-v13" begin="0" end="450" vehsPerHour="71" departSpeed="max" departPos="base" departLane="best" />
    <personFlow id="ped_west_north_straight_w0" begin="0" end="450" personsPerHour="60" departPos="base">
        <personTrip from="-h11" to="-h13" />
    </personFlow>
    <personFlow id="ped_west_north_left_w0" begin="0" end="450" personsPerHour="29" departPos="base">
        <personTrip from="-h11" to="v11" />
    </personFlow>
    <personFlow id="ped_west_north_right_w0" begin="0" end="450" personsPerHour="21" departPos="base">
        <personTrip from="-h11" to="-v13" />
    </personFlow>
    <flow id="west_south_straight_w0" from="-h21" to="-h23" begin="0" end="450" vehsPerHour="298" departSpeed="max" departPos="base" departLane="best" />
    <flow id="west_south_left_w0" from="-h21" to="v11" begin="0" end="450" vehsPerHour="79" departSpeed="max" departPos="base" departLane="best" />
    <flow id="west_south_right_w0" from="-h21" to="-v13" begin="0" end="450" vehsPerHour="113" departSpeed="max" departPos="base" departLane="best" />
    <personFlow id="ped_west_south_straight_w0" begin="0" end="450" personsPerHour="65" departPos="base">
        <personTrip from="-h21" to="-h23" />
    </personFlow>
    <personFlow id="ped_west_south_left_w0" begin="0" end="450" personsPerHour="7" departPos="base">
        <personTrip from="-h21" to="v11" />
    </personFlow>
    <personFlow id="ped_west_south_right_w0" begin="0" end="450" personsPerHour="16" departPos="base">
        <personTrip from="-h21" to="-v13" />
    </personFlow>
    <flow id="east_north_straight_w0" from="h13" to="h11" begin="0" end="450" vehsPerHour="250" departSpeed="max" departPos="base" departLane="best" />
    <flow id="east_north_left_w0" from="h13" to="-v23" begin="0" end="450" vehsPerHour="72" departSpeed="max" departPos="base" departLane="best" />
    <flow id="east_north_right_w0" from="h13" to="v21" begin="0" end="450" vehsPerHour="93" departSpeed="max" departPos="base" departLane="best" />
    <personFlow id="ped_east_north_straight_w0" begin="0" end="450" personsPerHour="67" departPos="base">
        <personTrip from="h13" to="h11" />
    </personFlow>
    <personFlow id="ped_east_north_left_w0" begin="0" end="450" personsPerHour="17" departPos="base">
        <personTrip from="h13" to="-v23" />
    </personFlow>
    <personFlow id="ped_east_north_right_w0" begin="0" end="450" personsPerHour="22" departPos="base">
        <personTrip from="h13" to="v21" />
    </personFlow>
    <flow id="east_south_straight_w0" from="h23" to="h21" begin="0" end="450" vehsPerHour="345" departSpeed="max" departPos="base" departLane="best" />
    <flow id="east_south_left_w0" from="h23" to="-v23" begin="0" end="450" vehsPerHour="105" departSpeed="max" departPos="base" departLane="best" />
    <flow id="east_south_right_w0" from="h23" to="v21" begin="0" end="450" vehsPerHour="161" departSpeed="max" departPos="base" departLane="best" />
    <personFlow id="ped_east_south_straight_w0" begin="0" end="450" personsPerHour="61" departPos="base">
        <personTrip from="h23" to="h21" />
    </personFlow>
    <personFlow id="ped_east_south_left_w0" begin="0" end="450" personsPerHour="18" departPos="base">
        <personTrip from="h23" to="-v23" />
    </personFlow>
    <personFlow id="ped_east_south_right_w0" begin="0" end="450" personsPerHour="21" departPos="base">
        <personTrip from="h23" to="v21" />
    </personFlow>
    <flow id="north_west_straight_w0" from="-v11" to="-v13" begin="0" end="450" vehsPerHour="334" departSpeed="max" departPos="base" departLane="best" />
    <flow id="north_west_left_w0" from="-v11" to="-h13" begin="0" end="450" vehsPerHour="107" departSpeed="max" departPos="base" departLane="best" />
    <flow id="north_west_right_w0" from="-v11" to="h11" begin="0" end="450" vehsPerHour="127" departSpeed="max" departPos="base" departLane="best" />
    <personFlow id="ped_north_west_straight_w0" begin="0" end="450" personsPerHour="64" departPos="base">
        <personTrip from="-v11" to="-v13" />
    </personFlow>
    <personFlow id="ped_north_west_left_w0" begin="0" end="450" personsPerHour="24" departPos="base">
        <personTrip from="-v11" to="-h13" />
    </personFlow>
    <personFlow id="ped_north_west_right_w0" begin="0" end="450" personsPerHour="23" departPos="base">
        <personTrip from="-v11" to="h11" />
    </personFlow>
    <flow id="north_east_straight_w0" from="-v21" to="-v23" begin="0" end="450" vehsPerHour="321" departSpeed="max" departPos="base" departLane="best" />
    <flow id="north_east_left_w0" from="-v21" to="-h13" begin="0" end="450" vehsPerHour="115" departSpeed="max" departPos="base" departLane="best" />
    <flow id="north_east_right_w0" from="-v21" to="h11" begin="0" end="450" vehsPerHour="175" departSpeed="max" departPos="base" departLane="best" />
    <personFlow id="ped_north_east_straight_w0" begin="0" end="450" personsPerHour="94" departPos="base">
        <personTrip from="-v21" to="-v23" />
    </personFlow>
    <personFlow id="ped_north_east_left_w0" begin="0" end="450" personsPerHour="17" departPos="base">
        <personTrip from="-v21" to="-h13" />
    </personFlow>
    <personFlow id="ped_north_east_right_w0" begin="0" end="450" personsPerHour="15" departPos="base">
        <personTrip from="-v21" to="h11" />
    </personFlow>
    <flow id="south_west_straight_w0" from="v13" to="v11" begin="0" end="450" vehsPerHour="297" departSpeed="max" departPos="base" departLane="best" />
    <flow id="south_west_left_w0" from="v13" to="h21" begin="0" end="450" vehsPerHour="78" departSpeed="max" departPos="base" departLane="best" />
    <flow id="south_west_right_w0" from="v13" to="-h23" begin="0" end="450" vehsPerHour="255" departSpeed="max" departPos="base" departLane="best" />
    <personFlow id="ped_south_west_straight_w0" begin="0" end="450" personsPerHour="44" departPos="base">
        <personTrip from="v13" to="v11" />
    </personFlow>
    <personFlow id="ped_south_west_left_w0" begin="0" end="450" personsPerHour="30" departPos="base">
        <personTrip from="v13" to="h21" />
    </personFlow>
    <personFlow id="ped_south_west_right_w0" begin="0" end="450" personsPerHour="12" departPos="base">
        <personTrip from="v13" to="-h23" />
    </personFlow>
    <flow id="south_east_straight_w0" from="v23" to="v21" begin="0" end="450" vehsPerHour="301" departSpeed="max" departPos="base" departLane="best" />
    <flow id="south_east_left_w0" from="v23" to="h21" begin="0" end="450" vehsPerHour="119" departSpeed="max" departPos="base" departLane="best" />
    <flow id="south_east_right_w0" from="v23" to="-h23" begin="0" end="450" vehsPerHour="98" departSpeed="max" departPos="base" departLane="best" />
    <personFlow id="ped_south_east_straight_w0" begin="0" end="450" personsPerHour="47" departPos="base">
        <personTrip from="v23" to="v21" />
    </personFlow>
    <personFlow id="ped_south_east_left_w0" begin="0" end="450" personsPerHour="16" departPos="base">
        <personTrip from="v23" to="h21" />
    </personFlow>
    <personFlow id="ped_south_east_right_w0" begin="0" end="450" personsPerHour="29" departPos="base">
        <personTrip from="v23" to="-h23" />
    </personFlow>
    <flow id="west_north_straight_w1" from="-h11" to="-h13" begin="450" end="900" vehsPerHour="402" departSpeed="max" departPos="base" departLane="best" />
    <flow id="west_north_left_w1" from="-h11" to="v11" begin="450" end="900" vehsPerHour="64" departSpeed="max" departPos="base" departLane="best" />
    <flow id="west_north_right_w1" from="-h11" to="-v13" begin="450" end="900" vehsPerHour="320" departSpeed="max" departPos="base" departLane="best" />
    <personFlow id="ped_west_north_straight_w1" begin="450" end="900" personsPerHour="72" departPos="base">
        <personTrip from="-h11" to="-h13" />
    </personFlow>
    <personFlow id="ped_west_north_left_w1" begin="450" end="900" personsPerHour="18" departPos="base">
        <personTrip from="-h11" to="v11" />
    </personFlow>
    <personFlow id="ped_west_north_right_w1" begin="450" end="900" personsPerHour="22" departPos="base">
        <personTrip from="-h11" to="-v13" />
    </personFlow>
    <flow id="west_south_straight_w1" from="-h21" to="-h23" begin="450" end="900" vehsPerHour="403" departSpeed="max" departPos="base" departLane="best" />
    <flow id="west_south_left_w1" from="-h21" to="v11" begin="450" end="900" vehsPerHour="120" departSpeed="max" departPos="base" departLane="best" />
    <flow id="west_south_right_w1" from="-h21" to="-v13" begin="450" end="900" vehsPerHour="53" departSpeed="max" departPos="base" departLane="best" />
    <personFlow id="ped_west_south_straight_w1" begin="450" end="900" personsPerHour="60" departPos="base">
        <personTrip from="-h21" to="-h23" />
    </personFlow>
    <personFlow id="ped_west_south_left_w1" begin="450" end="900" personsPerHour="28" departPos="base">
        <personTrip from="-h21" to="v11" />
    </personFlow>
    <personFlow id="ped_west_south_right_w1" begin="450" end="900" personsPerHour="25" departPos="base">
        <personTrip from="-h21" to="-v13" />
    </personFlow>
    <flow id="east_north_straight_w1" from="h13" to="h11" begin="450" end="900" vehsPerHour="323" departSpeed="max" departPos="base" departLane="best" />
    <flow id="east_north_left_w1" from="h13" to="-v23" begin="450" end="900" vehsPerHour="74" departSpeed="max" departPos="base" departLane="best" />
    <flow id="east_north_right_w1" from="h13" to="v21" begin="450" end="900" vehsPerHour="119" departSpeed="max" departPos="base" departLane="best" />
    <personFlow id="ped_east_north_straight_w1" begin="450" end="900" personsPerHour="52" departPos="base">
        <personTrip from="h13" to="h11" />
    </personFlow>
    <personFlow id="ped_east_north_left_w1" begin="450" end="900" personsPerHour="30" departPos="base">
        <personTrip from="h13" to="-v23" />
    </personFlow>
    <personFlow id="ped_east_north_right_w1" begin="450" end="900" personsPerHour="35" departPos="base">
        <personTrip from="h13" to="v21" />
    </personFlow>
    <flow id="east_south_straight_w1" from="h23" to="h21" begin="450" end="900" vehsPerHour="332" departSpeed="max" departPos="base" departLane="best" />
    <flow id="east_south_left_w1" from="h23" to="-v23" begin="450" end="900" vehsPerHour="135" departSpeed="max" departPos="base" departLane="best" />
    <flow id="east_south_right_w1" from="h23" to="v21" begin="450" end="900" vehsPerHour="47" departSpeed="max" departPos="base" departLane="best" />
    <personFlow id="ped_east_south_straight_w1" begin="450" end="900" personsPerHour="91" departPos="base">
        <personTrip from="h23" to="h21" />
    </personFlow>
    <personFlow id="ped_east_south_left_w1" begin="450" end="900" personsPerHour="28" departPos="base">
        <personTrip from="h23" to="-v23" />
    </personFlow>
    <personFlow id="ped_east_south_right_w1" begin="450" end="900" personsPerHour="13" departPos="base">
        <personTrip from="h23" to="v21" />
    </personFlow>
    <flow id="north_west_straight_w1" from="-v11" to="-v13" begin="450" end="900" vehsPerHour="368" departSpeed="max" departPos="base" departLane="best" />
    <flow id="north_west_left_w1" from="-v11" to="-h13" begin="450" end="900" vehsPerHour="116" departSpeed="max" departPos="base" departLane="best" />
    <flow id="north_west_right_w1" from="-v11" to="h11" begin="450" end="900" vehsPerHour="196" departSpeed="max" departPos="base" departLane="best" />
    <personFlow id="ped_north_west_straight_w1" begin="450" end="900" personsPerHour="78" departPos="base">
        <personTrip from="-v11" to="-v13" />
    </personFlow>
    <personFlow id="ped_north_west_left_w1" begin="450" end="900" personsPerHour="23" departPos="base">
        <personTrip from="-v11" to="-h13" />
    </personFlow>
    <personFlow id="ped_north_west_right_w1" begin="450" end="900" personsPerHour="29" departPos="base">
        <personTrip from="-v11" to="h11" />
    </personFlow>
    <flow id="north_east_straight_w1" from="-v21" to="-v23" begin="450" end="900" vehsPerHour="361" departSpeed="max" departPos="base" departLane="best" />
    <flow id="north_east_left_w1" from="-v21" to="-h13" begin="450" end="900" vehsPerHour="115" departSpeed="max" departPos="base" departLane="best" />
    <flow id="north_east_right_w1" from="-v21" to="h11" begin="450" end="900" vehsPerHour="149" departSpeed="max" departPos="base" departLane="best" />
    <personFlow id="ped_north_east_straight_w1" begin="450" end="900" personsPerHour="79" departPos="base">
        <personTrip from="-v21" to="-v23" />
    </personFlow>
    <personFlow id="ped_north_east_left_w1" begin="450" end="900" personsPerHour="20" departPos="base">
        <personTrip from="-v21" to="-h13" />
    </personFlow>
    <personFlow id="ped_north_east_right_w1" begin="450" end="900" personsPerHour="30" departPos="base">
        <personTrip from="-v21" to="h11" />
    </personFlow>
    <flow id="south_west_straight_w1" from="v13" to="v11" begin="450" end="900" vehsPerHour="315" departSpeed="max" departPos="base" departLane="best" />
    <flow id="south_west_left_w1" from="v13" to="h21" begin="450" end="900" vehsPerHour="73" departSpeed="max" departPos="base" departLane="best" />
    <flow id="south_west_right_w1" from="v13" to="-h23" begin="450" end="900" vehsPerHour="187" departSpeed="max" departPos="base" departLane="best" />
    <personFlow id="ped_south_west_straight_w1" begin="450" end="900" personsPerHour="83" departPos="base">
        <personTrip from="v13" to="v11" />
    </personFlow>
    <personFlow id="ped_south_west_left_w1" begin="450" end="900" personsPerHour="24" departPos="base">
        <personTrip from="v13" to="h21" />
    </personFlow>
    <personFlow id="ped_south_west_right_w1" begin="450" end="900" personsPerHour="22" departPos="base">
        <personTrip from="v13" to="-h23" />
    </personFlow>
    <flow id="south_east_straight_w1" from="v23" to="v21" begin="450" end="900" vehsPerHour="407" departSpeed="max" departPos="base" departLane="best" />
    <flow id="south_east_left_w1" from="v23" to="h21" begin="450" end="900" vehsPerHour="88" departSpeed="max" departPos="base" departLane="best" />
    <flow id="south_east_right_w1" from="v23" to="-h23" begin="450" end="900" vehsPerHour="108" departSpeed="max" departPos="base" departLane="best" />
    <personFlow id="ped_south_east_straight_w1" begin="450" end="900" personsPerHour="96" departPos="base">
        <personTrip from="v23" to="v21" />
    </personFlow>
    <personFlow id="ped_south_east_left_w1" begin="450" end="900" personsPerHour="17" departPos="base">
        <personTrip from="v23" to="h21" />
    </personFlow>
    <personFlow id="ped_south_east_right_w1" begin="450" end="900" personsPerHour="17" departPos="base">
        <personTrip from="v23" to="-h23" />
    </personFlow>
    <flow id="west_north_straight_w2" from="-h11" to="-h13" begin="900" end="1350" vehsPerHour="366" departSpeed="max" departPos="base" departLane="best" />
    <flow id="west_north_left_w2" from="-h11" to="v11" begin="900" end="1350" vehsPerHour="135" departSpeed="max" departPos="base" departLane="best" />
    <flow id="west_north_right_w2" from="-h11" to="-v13" begin="900" end="1350" vehsPerHour="108" departSpeed="max" departPos="base" departLane="best" />
    <personFlow id="ped_west_north_straight_w2" begin="900" end="1350" personsPerHour="75" departPos="base">
        <personTrip from="-h11" to="-h13" />
    </personFlow>
    <personFlow id="ped_west_north_left_w2" begin="900" end="1350" personsPerHour="20" departPos="base">
        <personTrip from="-h11" to="v11" />
    </personFlow>
    <personFlow id="ped_west_north_right_w2" begin="900" end="1350" personsPerHour="18" departPos="base">
        <personTrip from="-h11" to="-v13" />
    </personFlow>
    <flow id="west_south_straight_w2" from="-h21" to="-h23" begin="900" end="1350" vehsPerHour="403" departSpeed="max" departPos="base" departLane="best" />
    <flow id="west_south_left_w2" from="-h21" to="v11" begin="900" end="1350" vehsPerHour="132" departSpeed="max" departPos="base" departLane="best" />
    <flow id="west_south_right_w2" from="-h21" to="-v13" begin="900" end="1350" vehsPerHour="79" departSpeed="max" departPos="base" departLane="best" />
    <personFlow id="ped_west_south_straight_w2" begin="900" end="1350" personsPerHour="68" departPos="base">
        <personTrip from="-h21" to="-h23" />
    </personFlow>
    <personFlow id="ped_west_south_left_w2" begin="900" end="1350" personsPerHour="29" departPos="base">
        <personTrip from="-h21" to="v11" />
    </personFlow>
    <personFlow id="ped_west_south_right_w2" begin="900" end="1350" personsPerHour="46" departPos="base">
        <personTrip from="-h21" to="-v13" />
    </personFlow>
    <flow id="east_north_straight_w2" from="h13" to="h11" begin="900" end="1350" vehsPerHour="354" departSpeed="max" departPos="base" departLane="best" />
    <flow id="east_north_left_w2" from="h13" to="-v23" begin="900" end="1350" vehsPerHour="129" departSpeed="max" departPos="base" departLane="best" />
    <flow id="east_north_right_w2" from="h13" to="v21" begin="900" end="1350" vehsPerHour="82" departSpeed="max" departPos="base" departLane="best" />
    <personFlow id="ped_east_north_straight_w2" begin="900" end="1350" personsPerHour="121" departPos="base">
        <personTrip from="h13" to="h11" />
    </personFlow>
    <personFlow id="ped_east_north_left_w2" begin="900" end="1350" personsPerHour="12" departPos="base">
        <personTrip from="h13" to="-v23" />
    </personFlow>
    <personFlow id="ped_east_north_right_w2" begin="900" end="1350" personsPerHour="41" departPos="base">
        <personTrip from="h13" to="v21" />
    </personFlow>
    <flow id="east_south_straight_w2" from="h23" to="h21" begin="900" end="1350" vehsPerHour="404" departSpeed="max" departPos="base" departLane="best" />
    <flow id="east_south_left_w2" from="h23" to="-v23" begin="900" end="1350" vehsPerHour="83" departSpeed="max" departPos="base" departLane="best" />
    <flow id="east_south_right_w2" from="h23" to="v21" begin="900" end="1350" vehsPerHour="148" departSpeed="max" departPos="base" departLane="best" />
    <personFlow id="ped_east_south_straight_w2" begin="900" end="1350" personsPerHour="103" departPos="base">
        <personTrip from="h23" to="h21" />
    </personFlow>
    <personFlow id="ped_east_south_left_w2" begin="900" end="1350" personsPerHour="39" departPos="base">
        <personTrip from="h23" to="-v23" />
    </personFlow>
    <personFlow id="ped_east_south_right_w2" begin="900" end="1350" personsPerHour="12" departPos="base">
        <personTrip from="h23" to="v21" />
    </personFlow>
    <flow id="north_west_straight_w2" from="-v11" to="-v13" begin="900" end="1350" vehsPerHour="407" departSpeed="max" departPos="base" departLane="best" />
    <flow id="north_west_left_w2" from="-v11" to="-h13" begin="900" end="1350" vehsPerHour="115" departSpeed="max" departPos="base" departLane="best" />
    <flow id="north_west_right_w2" from="-v11" to="h11" begin="900" end="1350" vehsPerHour="103" departSpeed="max" departPos="base" departLane="best" />
    <personFlow id="ped_north_west_straight_w2" begin="900" end="1350" personsPerHour="76" departPos="base">
        <personTrip from="-v11" to="-v13" />
    </personFlow>
    <personFlow id="ped_north_west_left_w2" begin="900" end="1350" personsPerHour="14" departPos="base">
        <personTrip from="-v11" to="-h13" />
    </personFlow>
    <personFlow id="ped_north_west_right_w2" begin="900" end="1350" personsPerHour="41" departPos="base">
        <personTrip from="-v11" to="h11" />
    </personFlow>
    <flow id="north_east_straight_w2" from="-v21" to="-v23" begin="900" end="1350" vehsPerHour="346" departSpeed="max" departPos="base" departLane="best" />
    <flow id="north_east_left_w2" from="-v21" to="-h13" begin="900" end="1350" vehsPerHour="115" departSpeed="max" departPos="base" departLane="best" />
    <flow id="north_east_right_w2" from="-v21" to="h11" begin="900" end="1350" vehsPerHour="115" departSpeed="max" departPos="base" departLane="best" />
    <personFlow id="ped_north_east_straight_w2" begin="900" end="1350" personsPerHour="92" departPos="base">
        <personTrip from="-v21" to="-v23" />
    </personFlow>
    <personFlow id="ped_north_east_left_w2" begin="900" end="1350" personsPerHour="30" departPos="base">
        <personTrip from="-v21" to="-h13" />
    </personFlow>
    <personFlow id="ped_north_east_right_w2" begin="900" end="1350" personsPerHour="35" departPos="base">
        <personTrip from="-v21" to="h11" />
    </personFlow>
    <flow id="south_west_straight_w2" from="v13" to="v11" begin="900" end="1350" vehsPerHour="477" departSpeed="max" departPos="base" departLane="best" />
    <flow id="south_west_left_w2" from="v13" to="h21" begin="900" end="1350" vehsPerHour="82" departSpeed="max" departPos="base" departLane="best" />
    <flow id="south_west_right_w2" from="v13" to="-h23" begin="900" end="1350" vehsPerHour="78" departSpeed="max" departPos="base" departLane="best" />
    <personFlow id="ped_south_west_straight_w2" begin="900" end="1350" personsPerHour="59" departPos="base">
        <personTrip from="v13" to="v11" />
    </personFlow>
    <personFlow id="ped_south_west_left_w2" begin="900" end="1350" personsPerHour="31" departPos="base">
        <personTrip from="v13" to="h21" />
    </personFlow>
    <personFlow id="ped_south_west_right_w2" begin="900" end="1350" personsPerHour="18" departPos="base">
        <personTrip from="v13" to="-h23" />
    </personFlow>
    <flow id="south_east_straight_w2" from="v23" to="v21" begin="900" end="1350" vehsPerHour="295" departSpeed="max" departPos="base" departLane="best" />
    <flow id="south_east_left_w2" from="v23" to="h21" begin="900" end="1350" vehsPerHour="116" departSpeed="max" departPos="base" departLane="best" />
    <flow id="south_east_right_w2" from="v23" to="-h23" begin="900" end="1350" vehsPerHour="125" departSpeed="max" departPos="base" departLane="best" />
    <personFlow id="ped_south_east_straight_w2" begin="900" end="1350" personsPerHour="114" departPos="base">
        <personTrip from="v23" to="v21" />
    </personFlow>
    <personFlow id="ped_south_east_left_w2" begin="900" end="1350" personsPerHour="5" departPos="base">
        <personTrip from="v23" to="h21" />
    </personFlow>
    <personFlow id="ped_south_east_right_w2" begin="900" end="1350" personsPerHour="14" departPos="base">
        <personTrip from="v23" to="-h23" />
    </personFlow>
    <flow id="west_north_straight_w3" from="-h11" to="-h13" begin="1350" end="1800" vehsPerHour="319" departSpeed="max" departPos="base" departLane="best" />
    <flow id="west_north_left_w3" from="-h11" to="v11" begin="1350" end="1800" vehsPerHour="95" departSpeed="max" departPos="base" departLane="best" />
    <flow id="west_north_right_w3" from="-h11" to="-v13" begin="1350" end="1800" vehsPerHour="65" departSpeed="max" departPos="base" departLane="best" />
    <personFlow id="ped_west_north_straight_w3" begin="1350" end="1800" personsPerHour="74" departPos="base">
        <personTrip from="-h11" to="-h13" />
    </personFlow>
    <personFlow id="ped_west_north_left_w3" begin="1350" end="1800" personsPerHour="34" departPos="base">
        <personTrip from="-h11" to="v11" />
    </personFlow>
    <personFlow id="ped_west_north_right_w3" begin="1350" end="1800" personsPerHour="20" departPos="base">
        <personTrip from="-h11" to="-v13" />
    </personFlow>
    <flow id="west_south_straight_w3" from="-h21" to="-h23" begin="1350" end="1800" vehsPerHour="199" departSpeed="max" departPos="base" departLane="best" />
    <flow id="west_south_left_w3" from="-h21" to="v11" begin="1350" end="1800" vehsPerHour="159" departSpeed="max" departPos="base" departLane="best" />
    <flow id="west_south_right_w3" from="-h21" to="-v13" begin="1350" end="1800" vehsPerHour="94" departSpeed="max" departPos="base" departLane="best" />
    <personFlow id="ped_west_south_straight_w3" begin="1350" end="1800" personsPerHour="86" departPos="base">
        <personTrip from="-h21" to="-h23" />
    </personFlow>
    <personFlow id="ped_west_south_left_w3" begin="1350" end="1800" personsPerHour="7" departPos="base">
        <personTrip from="-h21" to="v11" />
    </personFlow>
    <personFlow id="ped_west_south_right_w3" begin="1350" end="1800" personsPerHour="31" departPos="base">
        <personTrip from="-h21" to="-v13" />
    </personFlow>
    <flow id="east_north_straight_w3" from="h13" to="h11" begin="1350" end="1800" vehsPerHour="493" departSpeed="max" departPos="base" departLane="best" />
    <flow id="east_north_left_w3" from="h13" to="-v23" begin="1350" end="1800" vehsPerHour="38" departSpeed="max" departPos="base" departLane="best" />
    <flow id="east_north_right_w3" from="h13" to="v21" begin="1350" end="1800" vehsPerHour="116" departSpeed="max" departPos="base" departLane="best" />
    <personFlow id="ped_east_north_straight_w3" begin="1350" end="1800" personsPerHour="60" departPos="base">
        <personTrip from="h13" to="h11" />
    </personFlow>
    <personFlow id="ped_east_north_left_w3" begin="1350" end="1800" personsPerHour="22" departPos="base">
        <personTrip from="h13" to="-v23" />
    </personFlow>
    <personFlow id="ped_east_north_right_w3" begin="1350" end="1800" personsPerHour="21" departPos="base">
        <personTrip from="h13" to="v21" />
    </personFlow>
    <flow id="east_south_straight_w3" from="h23" to="h21" begin="1350" end="1800" vehsPerHour="295" departSpeed="max" departPos="base" departLane="best" />
    <flow id="east_south_left_w3" from="h23" to="-v23" begin="1350" end="1800" vehsPerHour="119" departSpeed="max" departPos="base" departLane="best" />
    <flow id="east_south_right_w3" from="h23" to="v21" begin="1350" end="1800" vehsPerHour="69" departSpeed="max" departPos="base" departLane="best" />
    <personFlow id="ped_east_south_straight_w3" begin="1350" end="1800" personsPerHour="84" departPos="base">
        <personTrip from="h23" to="h21" />
    </personFlow>
    <personFlow id="ped_east_south_left_w3" begin="1350" end="1800" personsPerHour="33" departPos="base">
        <personTrip from="h23" to="-v23" />
    </personFlow>
    <personFlow id="ped_east_south_right_w3" begin="1350" end="1800" personsPerHour="20" departPos="base">
        <personTrip from="h23" to="v21" />
    </personFlow>
    <flow id="north_west_straight_w3" from="-v11" to="-v13" begin="1350" end="1800" vehsPerHour="296" departSpeed="max" departPos="base" departLane="best" />
    <flow id="north_west_left_w3" from="-v11" to="-h13" begin="1350" end="1800" vehsPerHour="63" departSpeed="max" departPos="base" departLane="best" />
    <flow id="north_west_right_w3" from="-v11" to="h11" begin="1350" end="1800" vehsPerHour="151" departSpeed="max" departPos="base" departLane="best" />
    <personFlow id="ped_north_west_straight_w3" begin="1350" end="1800" personsPerHour="57" departPos="base">
        <personTrip from="-v11" to="-v13" />
    </personFlow>
    <personFlow id="ped_north_west_left_w3" begin="1350" end="1800" personsPerHour="17" departPos="base">
        <personTrip from="-v11" to="-h13" />
    </personFlow>
    <personFlow id="ped_north_west_right_w3" begin="1350" end="1800" personsPerHour="38" departPos="base">
        <personTrip from="-v11" to="h11" />
    </personFlow>
    <flow id="north_east_straight_w3" from="-v21" to="-v23" begin="1350" end="1800" vehsPerHour="334" departSpeed="max" departPos="base" departLane="best" />
    <flow id="north_east_left_w3" from="-v21" to="-h13" begin="1350" end="1800" vehsPerHour="122" departSpeed="max" departPos="base" departLane="best" />
    <flow id="north_east_right_w3" from="-v21" to="h11" begin="1350" end="1800" vehsPerHour="68" departSpeed="max" departPos="base" departLane="best" />
    <personFlow id="ped_north_east_straight_w3" begin="1350" end="1800" personsPerHour="63" departPos="base">
        <personTrip from="-v21" to="-v23" />
    </personFlow>
    <personFlow id="ped_north_east_left_w3" begin="1350" end="1800" personsPerHour="14" departPos="base">
        <personTrip from="-v21" to="-h13" />
    </personFlow>
    <personFlow id="ped_north_east_right_w3" begin="1350" end="1800" personsPerHour="25" departPos="base">
        <personTrip from="-v21" to="h11" />
    </personFlow>
    <flow id="south_west_straight_w3" from="v13" to="v11" begin="1350" end="1800" vehsPerHour="329" departSpeed="max" departPos="base" departLane="best" />
    <flow id="south_west_left_w3" from="v13" to="h21" begin="1350" end="1800" vehsPerHour="96" departSpeed="max" departPos="base" departLane="best" />
    <flow id="south_west_right_w3" from="v13" to="-h23" begin="1350" end="1800" vehsPerHour="113" departSpeed="max" departPos="base" departLane="best" />
    <personFlow id="ped_south_west_straight_w3" begin="1350" end="1800" personsPerHour="60" departPos="base">
        <personTrip from="v13" to="v11" />
    </personFlow>
    <personFlow id="ped_south_west_left_w3" begin="1350" end="1800" personsPerHour="16" departPos="base">
        <personTrip from="v13" to="h21" />
    </personFlow>
    <personFlow id="ped_south_west_right_w3" begin="1350" end="1800" personsPerHour="29" departPos="base">
        <personTrip from="v13" to="-h23" />
    </personFlow>
    <flow id="south_east_straight_w3" from="v23" to="v21" begin="1350" end="1800" vehsPerHour="287" departSpeed="max" departPos="base" departLane="best" />