<routes>
    <flow id="west_north_straight_w0" from="-h11" to="-h13" begin="0" end="450" vehsPerHour="280" departSpeed="max" departPos="base" departLane="best" />
    <flow id="west_north_left_w0" from="-h11" to="v11" begin="0" end="450" vehsPerHour="110" departSpeed="max" departPos="base" departLane="best" />
    <flow id="west_north_right_w0" from="-h11" to="-v13" begin="0" end="450" vehsPerHour="70" departSpeed="max" departPos="base" departLane="best" />
    <personFlow id="ped_west_north_straight_w0" begin="0" end="450" personsPerHour="78" departPos="base">
        <personTrip from="-h11" to="-h13" />
    </personFlow>
    <personFlow id="ped_west_north_left_w0" begin="0" end="450" personsPerHour="10" departPos="base">
        <personTrip from="-h11" to="v11" />
    </personFlow>
    <personFlow id="ped_west_north_right_w0" begin="0" end="450" personsPerHour="27" departPos="base">
        <personTrip from="-h11" to="-v13" />
    </personFlow>
    <flow id="west_south_straight_w0" from="-h21" to="-h23" begin="0" end="450" vehsPerHour="285" departSpeed="max" departPos="base" departLane="best" />
    <flow id="west_south_left_w0" from="-h21" to="v11" begin="0" end="450" vehsPerHour="146" departSpeed="max" departPos="base" departLane="best" />
    <flow id="west_south_right_w0" from="-h21" to="-v13" begin="0" end="450" vehsPerHour="156" departSpeed="max" departPos="base" departLane="best" />
    <personFlow id="ped_west_south_straight_w0" begin="0" end="450" personsPerHour="54" departPos="base">
        <personTrip from="-h21" to="-h23" />
    </personFlow>
    <personFlow id="ped_west_south_left_w0" begin="0" end="450" personsPerHour="25" departPos="base">
        <personTrip from="-h21" to="v11" />
    </personFlow>
    <personFlow id="ped_west_south_right_w0" begin="0" end="450" personsPerHour="35" departPos="base">
        <personTrip from="-h21" to="-v13" />
    </personFlow>
    <flow id="east_north_straight_w0" from="h13" to="h11" begin="0" end="450" vehsPerHour="364" departSpeed="max" departPos="base" departLane="best" />
    <flow id="east_north_left_w0" from="h13" to="-v23" begin="0" end="450" vehsPerHour="97" departSpeed="max" departPos="base" departLane="best" />
    <flow id="east_north_right_w0" from="h13" to="v21" begin="0" end="450" vehsPerHour="121" departSpeed="max" departPos="base" departLane="best" />
    <personFlow id="ped_east_north_straight_w0" begin="0" end="450" personsPerHour="73" departPos="base">
        <personTrip from="h13" to="h11" />
    </personFlow>
    <personFlow id="ped_east_north_left_w0" begin="0" end="450" personsPerHour="24" departPos="base">
        <personTrip from="h13" to="-v23" />
    </personFlow>
    <personFlow id="ped_east_north_right_w0" begin="0" end="450" personsPerHour="24" departPos="base">
        <personTrip from="h13" to="v21" />
    </personFlow>
    <flow id="east_south_straight_w0" from="h23" to="h21" begin="0" end="450" vehsPerHour="237" departSpeed="max" departPos="base" departLane="best" />
    <flow id="east_south_left_w0" from="h23" to="-v23" begin="0" end="450" vehsPerHour="83" departSpeed="max" departPos="base" departLane="best" />
    <flow id="east_south_right_w0" from="h23" to="v21" begin="0" end="450" vehsPerHour="185" departSpeed="max" departPos="base" departLane="best" />
    <personFlow id="ped_east_south_straight_w0" begin="0" end="450" personsPerHour="61" departPos="base">
        <personTrip from="h23" to="h21" />
    </personFlow>
    <personFlow id="ped_east_south_left_w0" begin="0" end="450" personsPerHour="19" departPos="base">
        <personTrip from="h23" to="-v23" />
    </personFlow>
    <personFlow id="ped_east_south_right_w0" begin="0" end="450" personsPerHour="15" departPos="base">
        <personTrip from="h23" to="v21" />
    </personFlow>
    <flow id="north_west_straight_w0" from="-v11" to="-v13" begin="0" end="450" vehsPerHour="335" departSpeed="max" departPos="base" departLane="best" />
    <flow id="north_west_left_w0" from="-v11" to="-h13" begin="0" end="450" vehsPerHour="105" departSpeed="max" departPos="base" departLane="best" />
    <flow id="north_west_right_w0" from="-v11" to="h11" begin="0" end="450" vehsPerHour="161" departSpeed="max" departPos="base" departLane="best" />
    <personFlow id="ped_north_west_straight_w0" begin="0" end="450" personsPerHour="105" departPos="base">
        <personTrip from="-v11" to="-v13" />
    </personFlow>
    <personFlow id="ped_north_west_left_w0" begin="0" end="450" personsPerHour="22" departPos="base">
        <personTrip from="-v11" to="-h13" />
    </personFlow>
    <personFlow id="ped_north_west_right_w0" begin="0" end="450" personsPerHour="33" departPos="base">
        <personTrip from="-v11" to="h11" />
    </personFlow>
    <flow id="north_east_straight_w0" from="-v21" to="-v23" begin="0" end="450" vehsPerHour="343" departSpeed="max" departPos="base" departLane="best" />
    <flow id="north_east_left_w0" from="-v21" to="-h13" begin="0" end="450" vehsPerHour="70" departSpeed="max" departPos="base" departLane="best" />
    <flow id="north_east_right_w0" from="-v21" to="h11" begin="0" end="450" vehsPerHour="105" departSpeed="max" departPos="base" departLane="best" />
    <personFlow id="ped_north_east_straight_w0" begin="0" end="450" personsPerHour="47" departPos="base">
        <personTrip from="-v21" to="-v23" />
    </personFlow>
    <personFlow id="ped_north_east_left_w0" begin="0" end="450" personsPerHour="23" departPos="base">
        <personTrip from="-v21" to="-h13" />
    </personFlow>
    <personFlow id="ped_north_east_right_w0" begin="0" end="450" personsPerHour="20" departPos="base">
        <personTrip from="-v21" to="h11" />
    </personFlow>
    <flow id="south_west_straight_w0" from="v13" to="v11" begin="0" end="450" vehsPerHour="344" departSpeed="max" departPos="base" departLane="best" />
    <flow id="south_west_left_w0" from="v13" to="h21" begin="0" end="450" vehsPerHour="63" departSpeed="max" departPos="base" departLane="best" />
    <flow id="south_west_right_w0" from="v13" to="-h23" begin="0" end="450" vehsPerHour="79" departSpeed="max" departPos="base" departLane="best" />
    <personFlow id="ped_south_west_straight_w0" begin="0" end="450" personsPerHour="92" departPos="base">
        <personTrip from="v13" to="v11" />
    </personFlow>
    <personFlow id="ped_south_west_left_w0" begin="0" end="450" personsPerHour="32" departPos="base">
        <personTrip from="v13" to="h21" />
    </personFlow>
    <personFlow id="ped_south_west_right_w0" begin="0" end="450" personsPerHour="13" departPos="base">
        <personTrip from="v13" to="-h23" />
    </personFlow>
    <flow id="south_east_straight_w0" from="v23" to="v21" begin="0" end="450" vehsPerHour="299" departSpeed="max" departPos="base" departLane="best" />
    <flow id="south_east_left_w0" from="v23" to="h21" begin="0" end="450" vehsPerHour="65" departSpeed="max" departPos="base" departLane="best" />
    <flow id="south_east_right_w0" from="v23" to="-h23" begin="0" end="450" vehsPerHour="86" departSpeed="max" departPos="base" departLane="best" />
    <personFlow id="ped_south_east_straight_w0" begin="0" end="450" personsPerHour="97" departPos="base">
        <personTrip from="v23" to="v21" />
    </personFlow>
    <personFlow id="ped_south_east_left_w0" begin="0" end="450" personsPerHour="22" departPos="base">
        <personTrip from="v23" to="h21" />
    </personFlow>
    <personFlow id="ped_south_east_right_w0" begin="0" end="450" personsPerHour="28" departPos="base">
        <personTrip from="v23" to="-h23" />
    </personFlow>
    <flow id="west_north_straight_w1" from="-h11" to="-h13" begin="450" end="900" vehsPerHour="495" departSpeed="max" departPos="base" departLane="best" />
    <flow id="west_north_left_w1" from="-h11" to="v11" begin="450" end="900" vehsPerHour="70" departSpeed="max" departPos="base" departLane="best" />
    <flow id="west_north_right_w1" from="-h11" to="-v13" begin="450" end="900" vehsPerHour="94" departSpeed="max" departPos="base" departLane="best" />
    <personFlow id="ped_west_north_straight_w1" begin="450" end="900" personsPerHour="83" departPos="base">
        <personTrip from="-h11" to="-h13" />
    </personFlow>
    <personFlow id="ped_west_north_left_w1" begin="450" end="900" personsPerHour="43" departPos="base">
        <personTrip from="-h11" to="v11" />
    </personFlow>
    <personFlow id="ped_west_north_right_w1" begin="450" end="900" personsPerHour="13" departPos="base">
        <personTrip from="-h11" to="-v13" />
    </personFlow>
    <flow id="west_south_straight_w1" from="-h21" to="-h23" begin="450" end="900" vehsPerHour="313" departSpeed="max" departPos="base" departLane="best" />
    <flow id="west_south_left_w1" from="-h21" to="v11" begin="450" end="900" vehsPerHour="91" departSpeed="max" departPos="base" departLane="best" />
    <flow id="west_south_right_w1" from="-h21" to="-v13" begin="450" end="900" vehsPerHour="100" departSpeed="max" departPos="base" departLane="best" />
    <personFlow id="ped_west_south_straight_w1" begin="450" end="900" personsPerHour="94" departPos="base">
        <personTrip from="-h21" to="-h23" />
    </personFlow>
    <personFlow id="ped_west_south_left_w1" begin="450" end="900" personsPerHour="35" departPos="base">
        <personTrip from="-h21" to="v11" />
    </personFlow>
    <personFlow id="ped_west_south_right_w1" begin="450" end="900" personsPerHour="17" departPos="base">
        <personTrip from="-h21" to="-v13" />
    </personFlow>
    <flow id="east_north_straight_w1" from="h13" to="h11" begin="450" end="900" vehsPerHour="476" departSpeed="max" departPos="base" departLane="best" />
    <flow id="east_north_left_w1" from="h13" to="-v23" begin="450" end="900" vehsPerHour="40" departSpeed="max" departPos="base" departLane="best" />
    <flow id="east_north_right_w1" from="h13" to="v21" begin="450" end="900" vehsPerHour="128" departSpeed="max" departPos="base" departLane="best" />
    <personFlow id="ped_east_north_straight_w1" begin="450" end="900" personsPerHour="98" departPos="base">
        <personTrip from="h13" to="h11" />
    </personFlow>
    <personFlow id="ped_east_north_left_w1" begin="450" end="900" personsPerHour="13" departPos="base">
        <personTrip from="h13" to="-v23" />
    </personFlow>
    <personFlow id="ped_east_north_right_w1" begin="450" end="900" personsPerHour="13" departPos="base">
        <personTrip from="h13" to="v21" />
    </personFlow>
    <flow id="east_south_straight_w1" from="h23" to="h21" begin="450" end="900" vehsPerHour="278" departSpeed="max" departPos="base" departLane="best" />
    <flow id="east_south_left_w1" from="h23" to="-v23" begin="450" end="900" vehsPerHour="167" departSpeed="max" departPos="base" departLane="best" />
    <flow id="east_south_right_w1" from="h23" to="v21" begin="450" end="900" vehsPerHour="68" departSpeed="max" departPos="base" departLane="best" />
    <personFlow id="ped_east_south_straight_w1" begin="450" end="900" personsPerHour="71" departPos="base">
        <personTrip from="h23" to="h21" />
    </personFlow>
    <personFlow id="ped_east_south_left_w1" begin="450" end="900" personsPerHour="37" departPos="base">
        <personTrip from="h23" to="-v23" />
    </personFlow>
    <personFlow id="ped_east_south_right_w1" begin="450" end="900" personsPerHour="25" departPos="base">
        <personTrip from="h23" to="v21" />
    </personFlow>
    <flow id="north_west_straight_w1" from="-v11" to="-v13" begin="450" end="900" vehsPerHour="447" departSpeed="max" departPos="base" departLane="best" />
    <flow id="north_west_left_w1" from="-v11" to="-h13" begin="450" end="900" vehsPerHour="146" departSpeed="max" departPos="base" departLane="best" />
    <flow id="north_west_right_w1" from="-v11" to="h11" begin="450" end="900" vehsPerHour="111" departSpeed="max" departPos="base" departLane="best" />
    <personFlow id="ped_north_west_straight_w1" begin="450" end="900" personsPerHour="68" departPos="base">
        <personTrip from="-v11" to="-v13" />
    </personFlow>
    <personFlow id="ped_north_west_left_w1" begin="450" end="900" personsPerHour="13" departPos="base">
        <personTrip from="-v11" to="-h13" />
    </personFlow>
    <personFlow id="ped_north_west_right_w1" begin="450" end="900" personsPerHour="17" departPos="base">
        <personTrip from="-v11" to="h11" />
    </personFlow>
    <flow id="north_east_straight_w1" from="-v21" to="-v23" begin="450" end="900" vehsPerHour="174" departSpeed="max" departPos="base" departLane="best" />
    <flow id="north_east_left_w1" from="-v21" to="-h13" begin="450" end="900" vehsPerHour="93" departSpeed="max" departPos="base" departLane="best" />
    <flow id="north_east_right_w1" from="-v21" to="h11" begin="450" end="900" vehsPerHour="117" departSpeed="max" departPos="base" departLane="best" />
    <personFlow id="ped_north_east_straight_w1" begin="450" end="900" personsPerHour="57" departPos="base">
        <personTrip from="-v21" to="-v23" />
    </personFlow>
    <personFlow id="ped_north_east_left_w1" begin="450" end="900" personsPerHour="41" departPos="base">
        <personTrip from="-v21" to="-h13" />
    </personFlow>
    <personFlow id="ped_north_east_right_w1" begin="450" end="900" personsPerHour="36" departPos="base">
        <personTrip from="-v21" to="h11" />
    </personFlow>
    <flow id="south_west_straight_w1" from="v13" to="v11" begin="450" end="900" vehsPerHour="392" departSpeed="max" departPos="base" departLane="best" />
    <flow id="south_west_left_w1" from="v13" to="h21" begin="450" end="900" vehsPerHour="153" departSpeed="max" departPos="base" departLane="best" />
    <flow id="south_west_right_w1" from="v13" to="-h23" begin="450" end="900" vehsPerHour="108" departSpeed="max" departPos="base" departLane="best" />
    <personFlow id="ped_south_west_straight_w1" begin="450" end="900" personsPerHour="73" departPos="base">
        <personTrip from="v13" to="v11" />
    </personFlow>
    <personFlow id="ped_south_west_left_w1" begin="450" end="900" personsPerHour="21" departPos="base">
        <personTrip from="v13" to="h21" />
    </personFlow>
    <personFlow id="ped_south_west_right_w1" begin="450" end="900" personsPerHour="39" departPos="base">
        <personTrip from="v13" to="-h23" />
    </personFlow>
    <flow id="south_east_straight_w1" from="v23" to="v21" begin="450" end="900" vehsPerHour="371" departSpeed="max" departPos="base" departLane="best" />
    <flow id="south_east_left_w1" from="v23" to="h21" begin="450" end="900" vehsPerHour="137" departSpeed="max" departPos="base" departLane="best" />
    <flow id="south_east_right_w1" from="v23" to="-h23" begin="450" end="900" vehsPerHour="112" departSpeed="max" departPos="base" departLane="best" />
    <personFlow id="ped_south_east_straight_w1" begin="450" end="900" personsPerHour="79" departPos="base">
        <personTrip from="v23" to="v21" />
    </personFlow>
    <personFlow id="ped_south_east_left_w1" begin="450" end="900" personsPerHour="14" departPos="base">
        <personTrip from="v23" to="h21" />
    </personFlow>
    <personFlow id="ped_south_east_right_w1" begin="450" end="900" personsPerHour="34" departPos="base">
        <personTrip from="v23" to="-h23" />
    </personFlow>
    <flow id="west_north_straight_w2" from="-h11" to="-h13" begin="900" end="1350" vehsPerHour="350" departSpeed="max" departPos="base" departLane="best" />
    <flow id="west_north_left_w2" from="-h11" to="v11" begin="900" end="1350" vehsPerHour="168" departSpeed="max" departPos="base" departLane="best" />
    <flow id="west_north_right_w2" from="-h11" to="-v13" begin="900" end="1350" vehsPerHour="184" departSpeed="max" departPos="base" departLane="best" />
    <personFlow id="ped_west_north_straight_w2" begin="900" end="1350" personsPerHour="59" departPos="base">
        <personTrip from="-h11" to="-h13" />
    </personFlow>
    <personFlow id="ped_west_north_left_w2" begin="900" end="1350" personsPerHour="30" departPos="base">
        <personTrip from="-h11" to="v11" />
    </personFlow>
    <personFlow id="ped_west_north_right_w2" begin="900" end="1350" personsPerHour="14" departPos="base">
        <personTrip from="-h11" to="-v13" />
    </personFlow>
    <flow id="west_south_straight_w2" from="-h21" to="-h23" begin="900" end="1350" vehsPerHour="323" departSpeed="max" departPos="base" departLane="best" />
    <flow id="west_south_left_w2" from="-h21" to="v11" begin="900" end="1350" vehsPerHour="96" departSpeed="max" departPos="base" departLane="best" />
    <flow id="west_south_right_w2" from="-h21" to="-v13" begin="900" end="1350" vehsPerHour="138" departSpeed="max" departPos="base" departLane="best" />
    <personFlow id="ped_west_south_straight_w2" begin="900" end="1350" personsPerHour="63" departPos="base">
        <personTrip from="-h21" to="-h23" />
    </personFlow>
    <personFlow id="ped_west_south_left_w2" begin="900" end="1350" personsPerHour="32" departPos="base">
        <personTrip from="-h21" to="v11" />
    </personFlow>
    <personFlow id="ped_west_south_right_w2" begin="900" end="1350" personsPerHour="14" departPos="base">
        <personTrip from="-h21" to="-v13" />
    </personFlow>
    <flow id="east_north_straight_w2" from="h13" to="h11" begin="900" end="1350" vehsPerHour="231" departSpeed="max" departPos="base" departLane="best" />
    <flow id="east_north_left_w2" from="h13" to="-v23" begin="900" end="1350" vehsPerHour="70" departSpeed="max" departPos="base" departLane="best" />
    <flow id="east_north_right_w2" from="h13" to="v21" begin="900" end="1350" vehsPerHour="200" departSpeed="max" departPos="base" departLane="best" />
    <personFlow id="ped_east_north_straight_w2" begin="900" end="1350" personsPerHour="74" departPos="base">
        <personTrip from="h13" to="h11" />
    </personFlow>
    <personFlow id="ped_east_north_left_w2" begin="900" end="1350" personsPerHour="29" departPos="base">
        <personTrip from="h13" to="-v23" />
    </personFlow>
    <personFlow id="ped_east_north_right_w2" begin="900" end="1350" personsPerHour="26" departPos="base">
        <personTrip from="h13" to="v21" />
    </personFlow>
    <flow id="east_south_straight_w2" from="h23" to="h21" begin="900" end="1350" vehsPerHour="404" departSpeed="max" departPos="base" departLane="best" />
    <flow id="east_south_left_w2" from="h23" to="-v23" begin="900" end="1350" vehsPerHour="161" departSpeed="max" departPos="base" departLane="best" />
    <flow id="east_south_right_w2" from="h23" to="v21" begin="900" end="1350" vehsPerHour="181" departSpeed="max" departPos="base" departLane="best" />
    <personFlow id="ped_east_south_straight_w2" begin="900" end="1350" personsPerHour="84" departPos="base">
        <personTrip from="h23" to="h21" />
    </personFlow>
    <personFlow id="ped_east_south_left_w2" begin="900" end="1350" personsPerHour="19" departPos="base">
        <personTrip from="h23" to="-v23" />
    </personFlow>
    <personFlow id="ped_east_south_right_w2" begin="900" end="1350" personsPerHour="13" departPos="base">
        <personTrip from="h23" to="v21" />
    </personFlow>
    <flow id="north_west_straight_w2" from="-v11" to="-v13" begin="900" end="1350" vehsPerHour="355" departSpeed="max" departPos="base" departLane="best" />
    <flow id="north_west_left_w2" from="-v11" to="-h13" begin="900" end="1350" vehsPerHour="48" departSpeed="max" departPos="base" departLane="best" />
    <flow id="north_west_right_w2" from="-v11" to="h11" begin="900" end="1350" vehsPerHour="115" departSpeed="max" departPos="base" departLane="best" />
    <personFlow id="ped_north_west_straight_w2" begin="900" end="1350" personsPerHour="90" departPos="base">
        <personTrip from="-v11" to="-v13" />
    </personFlow>
    <personFlow id="ped_north_west_left_w2" begin="900" end="1350" personsPerHour="21" departPos="base">
        <personTrip from="-v11" to="-h13" />
    </personFlow>
    <personFlow id="ped_north_west_right_w2" begin="900" end="1350" personsPerHour="7" departPos="base">
        <personTrip from="-v11" to="h11" />
    </personFlow>
    <flow id="north_east_straight_w2" from="-v21" to="-v23" begin="900" end="1350" vehsPerHour="459" departSpeed="max" departPos="base" departLane="best" />
    <flow id="north_east_left_w2" from="-v21" to="-h13" begin="900" end="1350" vehsPerHour="102" departSpeed="max" departPos="base" departLane="best" />
    <flow id="north_east_right_w2" from="-v21" to="h11" begin="900" end="1350" vehsPerHour="114" departSpeed="max" departPos="base" departLane="best" />
    <personFlow id="ped_north_east_straight_w2" begin="900" end="1350" personsPerHour="79" departPos="base">
        <personTrip from="-v21" to="-v23" />
    </personFlow>
    <personFlow id="ped_north_east_left_w2" begin="900" end="1350" personsPerHour="23" departPos="base">
        <personTrip from="-v21" to="-h13" />
    </personFlow>
    <personFlow id="ped_north_east_right_w2" begin="900" end="1350" personsPerHour="29" departPos="base">
        <personTrip from="-v21" to="h11" />
    </personFlow>
    <flow id="south_west_straight_w2" from="v13" to="v11" begin="900" end="1350" vehsPerHour="532" departSpeed="max" departPos="base" departLane="best" />
    <flow id="south_west_left_w2" from="v13" to="h21" begin="900" end="1350" vehsPerHour="71" departSpeed="max" departPos="base" departLane="best" />
    <flow id="south_west_right_w2" from="v13" to="-h23" begin="900" end="1350" vehsPerHour="79" departSpeed="max" departPos="base" departLane="best" />
    <personFlow id="ped_south_west_straight_w2" begin="900" end="1350" personsPerHour="71" departPos="base">
        <personTrip from="v13" to="v11" />
    </personFlow>
    <personFlow id="ped_south_west_left_w2" begin="900" end="1350" personsPerHour="25" departPos="base">
        <personTrip from="v13" to="h21" />
    </personFlow>
    <personFlow id="ped_south_west_right_w2" begin="900" end="1350" personsPerHour="35" departPos="base">
        <personTrip from="v13" to="-h23" />
    </personFlow>
    <flow id="south_east_straight_w2" from="v23" to="v21" begin="900" end="1350" vehsPerHour="556" departSpeed="max" departPos="base" departLane="best" />
    <flow id="south_east_left_w2" from="v23" to="h21" begin="900" end="1350" vehsPerHour="143" departSpeed="max" departPos="base" departLane="best" />
    <flow id="south_east_right_w2" from="v23" to="-h23" begin="900" end="1350" vehsPerHour="71" departSpeed="max" departPos="base" departLane="best" />
    <personFlow id="ped_south_east_straight_w2" begin="900" end="1350" personsPerHour="61" departPos="base">
        <personTrip from="v23" to="v21" />
    </personFlow>
    <personFlow id="ped_south_east_left_w2" begin="900" end="1350" personsPerHour="53" departPos="base">
        <personTrip from="v23" to="h21" />
    </personFlow>
    <personFlow id="ped_south_east_right_w2" begin="900" end="1350" personsPerHour="20" departPos="base">
        <personTrip from="v23" to="-h23" />
    </personFlow>
    <flow id="west_north_straight_w3" from="-h11" to="-h13" begin="1350" end="1800" vehsPerHour="326" departSpeed="max" departPos="base" departLane="best" />
    <flow id="west_north_left_w3" from="-h11" to="v11" begin="1350" end="1800" vehsPerHour="147" departSpeed="max" departPos="base" departLane="best" />
    <flow id="west_north_right_w3" from="-h11" to="-v13" begin="1350" end="1800" vehsPerHour="133" departSpeed="max" departPos="base" departLane="best" />
    <personFlow id="ped_west_north_straight_w3" begin="1350" end="1800" personsPerHour="63" departPos="base">
        <personTrip from="-h11" to="-h13" />
    </personFlow>
    <personFlow id="ped_west_north_left_w3" begin="1350" end="1800" personsPerHour="19" departPos="base">
        <personTrip from="-h11" to="v11" />
    </personFlow>
    <personFlow id="ped_west_north_right_w3" begin="1350" end="1800" personsPerHour="25" departPos="base">
        <personTrip from="-h11" to="-v13" />
    </personFlow>
    <flow id="west_south_straight_w3" from="-h21" to="-h23" begin="1350" end="1800" vehsPerHour="319" departSpeed="max" departPos="base" departLane="best" />
    <flow id="west_south_left_w3" from="-h21" to="v11" begin="1350" end="1800" vehsPerHour="95" departSpeed="max" departPos="base" departLane="best" />
    <flow id="west_south_right_w3" from="-h21" to="-v13" begin="1350" end="1800" vehsPerHour="155" departSpeed="max" departPos="base" departLane="best" />
    <personFlow id="ped_west_south_straight_w3" begin="1350" end="1800" personsPerHour="46" departPos="base">
        <personTrip from="-h21" to="-h23" />
    </personFlow>
    <personFlow id="ped_west_south_left_w3" begin="1350" end="1800" personsPerHour="11" departPos="base">
        <personTrip from="-h21" to="v11" />
    </personFlow>
    <personFlow id="ped_west_south_right_w3" begin="1350" end="1800" personsPerHour="32" departPos="base">
        <personTrip from="-h21" to="-v13" />
    </personFlow>
    <flow id="east_north_straight_w3" from="h13" to="h11" begin="1350" end="1800" vehsPerHour="239" departSpeed="max" departPos="base" departLane="best" />
    <flow id="east_north_left_w3" from="h13" to="-v23" begin="1350" end="1800" vehsPerHour="127" departSpeed="max" departPos="base" departLane="best" />
    <flow id="east_north_right_w3" from="h13" to="v21" begin="1350" end="1800" vehsPerHour="192" departSpeed="max" departPos="base" departLane="best" />
    <personFlow id="ped_east_north_straight_w3" begin="1350" end="1800" personsPerHour="68" departPos="base">
        <personTrip from="h13" to="h11" />
    </personFlow>
    <personFlow id="ped_east_north_left_w3" begin="1350" end="1800" personsPerHour="12" departPos="base">
        <personTrip from="h13" to="-v23" />
    </personFlow>
    <personFlow id="ped_east_north_right_w3" begin="1350" end="1800" personsPerHour="15" departPos="base">
        <personTrip from="h13" to="v21" />
    </personFlow>
    <flow id="east_south_straight_w3" from="h23" to="h21" begin="1350" end="1800" vehsPerHour="257" departSpeed="max" departPos="base" departLane="best" />
    <flow id="east_south_left_w3" from="h23" to="-v23" begin="1350" end="1800" vehsPerHour="85" departSpeed="max" departPos="base" departLane="best" />
    <flow id="east_south_right_w3" from="h23" to="v21" begin="1350" end="1800" vehsPerHour="111" departSpeed="max" departPos="base" departLane="best" />
    <personFlow id="ped_east_south_straight_w3" begin="1350" end="1800" personsPerHour="51" departPos="base">
        <personTrip from="h23" to="h21" />
    </personFlow>
    <personFlow id="ped_east_south_left_w3" begin="1350" end="1800" personsPerHour="26" departPos="base">
        <personTrip from="h23" to="-v23" />
    </personFlow>
    <personFlow id="ped_east_south_right_w3" begin="1350" end="1800" personsPerHour="32" departPos="base">
        <personTrip from="h23" to="v21" />
    </personFlow>
    <flow id="north_west_straight_w3" from="-v11" to="-v13" begin="1350" end="1800" vehsPerHour="293" departSpeed="max" departPos="base" departLane="best" />
    <flow id="north_west_left_w3" from="-v11" to="-h13" begin="1350" end="1800" vehsPerHour="127" departSpeed="max" departPos="base" departLane="best" />
    <flow id="north_west_right_w3" from="-v11" to="h11" begin="1350" end="1800" vehsPerHour="94" departSpeed="max" departPos="base" departLane="best" />
    <personFlow id="ped_north_west_straight_w3" begin="1350" end="1800" personsPerHour="48" departPos="base">
        <personTrip from="-v11" to="-v13" />
    </personFlow>
    <personFlow id="ped_north_west_left_w3" begin="1350" end="1800" personsPerHour="35" departPos="base">
        <personTrip from="-v11" to="-h13" />
    </personFlow>
    <personFlow id="ped_north_west_right_w3" begin="1350" end="1800" personsPerHour="15" departPos="base">
        <personTrip from="-v11" to="h11" />
    </personFlow>
    <flow id="north_east_straight_w3" from="-v21" to="-v23" begin="1350" end="1800" vehsPerHour="308" departSpeed="max" departPos="base" departLane="best" />
    <flow id="north_east_left_w3" from="-v21" to="-h13" begin="1350" end="1800" vehsPerHour="109" departSpeed="max" departPos="base" departLane="best" />
    <flow id="north_east_right_w3" from="-v21" to="h11" begin="1350" end="1800" vehsPerHour="161" departSpeed="max" departPos="base" departLane="best" />
    <personFlow id="ped_north_east_straight_w3" begin="1350" end="1800" personsPerHour="100" departPos="base">
        <personTrip from="-v21" to="-v23" />
    </personFlow>
    <personFlow id="ped_north_east_left_w3" begin="1350" end="1800" personsPerHour="24" departPos="base">
        <personTrip from="-v21" to="-h13" />
    </personFlow>
    <personFlow id="ped_north_east_right_w3" begin="1350" end="1800" personsPerHour="34" departPos="base">
        <personTrip from="-v21" to="h11" />
    </personFlow>
    <flow id="south_west_straight_w3" from="v13" to="v11" begin="1350" end="1800" vehsPerHour="336" departSpeed="max" departPos="base" departLane="best" />
    <flow id="south_west_left_w3" from="v13" to="h21" begin="1350" end="1800" vehsPerHour="67" departSpeed="max" departPos="base" departLane="best" />
    <flow id="south_west_right_w3" from="v13" to="-h23" begin="1350" end="1800" vehsPerHour="64" departSpeed="max" departPos="base" departLane="best" />
    <personFlow id="ped_south_west_straight_w3" begin="1350" end="1800" personsPerHour="53" departPos="base">
        <personTrip from="v13" to="v11" />
    </personFlow>
    <personFlow id="ped_south_west_left_w3" begin="1350" end="1800" personsPerHour="34" departPos="base">
        <personTrip from="v13" to="h21" />
    </personFlow>
    <personFlow id="ped_south_west_right_w3" begin="1350" end="1800" personsPerHour="34" departPos="base">
        <personTrip from="v13" to="-h23" />
    </personFlow>
    <flow id="south_east_straight_w3" from="v23" to="v21" begin="1350" end="1800" vehsPerHour="278" departSpeed="max" departPos="base" departLane="best" />