<routes>
    <flow id="west_north_straight_w0" from="-h11" to="-h13" begin="0" end="450" vehsPerHour="291" departSpeed="max" departPos="base" departLane="best" />
    <flow id="west_north_left_w0" from="-h11" to="v11" begin="0" end="450" vehsPerHour="55" departSpeed="max" departPos="base" departLane="best" />
    <flow id="west_north_right_w0" from="-h11" to="-v13" begin="0" end="450" vehsPerHour="55" departSpeed="max" departPos="base" departLane="best" />
    <personFlow id="ped_west_north_straight_w0" begin="0" end="450" personsPerHour="46" departPos="base">
        <personTrip from="-h11" to="-h13" />
    </personFlow>
    <personFlow id="ped_west_north_left_w0" begin="0" end="450" personsPerHour="22" departPos="base">
        <personTrip from="-h11" to="v11" />
    </personFlow>
    <personFlow id="ped_west_north_right_w0" begin="0" end="450" personsPerHour="16" departPos="base">
        <personTrip from="-h11" to="-v13" />
    </personFlow>
    <flow id="west_south_straight_w0" from="-h21" to="-h23" begin="0" end="450" vehsPerHour="229" departSpeed="max" departPos="base" departLane="best" />
    <flow id="west_south_left_w0" from="-h21" to="v11" begin="0" end="450" vehsPerHour="61" departSpeed="max" departPos="base" departLane="best" />
    <flow id="west_south_right_w0" from="-h21" to="-v13" begin="0" end="450" vehsPerHour="87" departSpeed="max" departPos="base" departLane="best" />
    <personFlow id="ped_west_south_straight_w0" begin="0" end="450" personsPerHour="50" departPos="base">
        <personTrip from="-h21" to="-h23" />
    </personFlow>
    <personFlow id="ped_west_south_left_w0" begin="0" end="450" personsPerHour="6" departPos="base">
        <personTrip from="-h21" to="v11" />
    </personFlow>
    <personFlow id="ped_west_south_right_w0" begin="0" end="450" personsPerHour="12" departPos="base">
        <personTrip from="-h21" to="-v13" />
    </personFlow>
    <flow id="east_north_straight_w0" from="h13" to="h11" begin="0" end="450" vehsPerHour="192" departSpeed="max" departPos="base" departLane="best" />
    <flow id="east_north_left_w0" from="h13" to="-v23" begin="0" end="450" vehsPerHour="55" departSpeed="max" departPos="base" departLane="best" />
    <flow id="east_north_right_w0" from="h13" to="v21" begin="0" end="450" vehsPerHour="72" departSpeed="max" departPos="base" departLane="best" />
    <personFlow id="ped_east_north_straight_w0" begin="0" end="450" personsPerHour="52" departPos="base">
        <personTrip from="h13" to="h11" />
    </personFlow>
    <personFlow id="ped_east_north_left_w0" begin="0" end="450" personsPerHour="13" departPos="base">
        <personTrip from="h13" to="-v23" />
    </personFlow>
    <personFlow id="ped_east_north_right_w0" begin="0" end="450" personsPerHour="17" departPos="base">
        <personTrip from="h13" to="v21" />
    </personFlow>
    <flow id="east_south_straight_w0" from="h23" to="h21" begin="0" end="450" vehsPerHour="266" departSpeed="max" departPos="base" departLane="best" />
    <flow id="east_south_left_w0" from="h23" to="-v23" begin="0" end="450" vehsPerHour="81" departSpeed="max" departPos="base" departLane="best" />
    <flow id="east_south_right_w0" from="h23" to="v21" begin="0" end="450" vehsPerHour="124" departSpeed="max" departPos="base" departLane="best" />
    <personFlow id="ped_east_south_straight_w0" begin="0" end="450" personsPerHour="47" departPos="base">
        <personTrip from="h23" to="h21" />
    </personFlow>
    <personFlow id="ped_east_south_left_w0" begin="0" end="450" personsPerHour="14" departPos="base">
        <personTrip from="h23" to="-v23" />
    </personFlow>
    <personFlow id="ped_east_south_right_w0" begin="0" end="450" personsPerHour="16" departPos="base">
        <personTrip from="h23" to="v21" />
    </personFlow>
    <flow id="north_west_straight_w0" from="-v11" to="-v13" begin="0" end="450" vehsPerHour="257" departSpeed="max" departPos="base" departLane="best" />
    <flow id="north_west_left_w0" from="-v11" to="-h13" begin="0" end="450" vehsPerHour="83" departSpeed="max" departPos="base" departLane="best" />
    <flow id="north_west_right_w0" from="-v11" to="h11" begin="0" end="450" vehsPerHour="98" departSpeed="max" departPos="base" departLane="best" />
    <personFlow id="ped_north_west_straight_w0" begin="0" end="450" personsPerHour="49" departPos="base">
        <personTrip from="-v11" to="-v13" />
    </personFlow>
    <personFlow id="ped_north_west_left_w0" begin="0" end="450" personsPerHour="18" departPos="base">
        <personTrip from="-v11" to="-h13" />
    </personFlow>
    <personFlow id="ped_north_west_right_w0" begin="0" end="450" personsPerHour="18" departPos="base">
        <personTrip from="-v11" to="h11" />
    </personFlow>
    <flow id="north_east_straight_w0" from="-v21" to="-v23" begin="0" end="450" vehsPerHour="247" departSpeed="max" departPos="base" departLane="best" />
    <flow id="north_east_left_w0" from="-v21" to="-h13" begin="0" end="450" vehsPerHour="89" departSpeed="max" departPos="base" departLane="best" />
    <flow id="north_east_right_w0" from="-v21" to="h11" begin="0" end="450" vehsPerHour="134" departSpeed="max" departPos="base" departLane="best" />
    <personFlow id="ped_north_east_straight_w0" begin="0" end="450" personsPerHour="73" departPos="base">
        <personTrip from="-v21" to="-v23" />
    </personFlow>
    <personFlow id="ped_north_east_left_w0" begin="0" end="450" personsPerHour="13" departPos="base">
        <personTrip from="-v21" to="-h13" />
    </personFlow>
    <personFlow id="ped_north_east_right_w0" begin="0" end="450" personsPerHour="12" departPos="base">
        <personTrip from="-v21" to="h11" />
    </personFlow>
    <flow id="south_west_straight_w0" from="v13" to="v11" begin="0" end="450" vehsPerHour="229" departSpeed="max" departPos="base" departLane="best" />
    <flow id="south_west_left_w0" from="v13" to="h21" begin="0" end="450" vehsPerHour="60" departSpeed="max" departPos="base" departLane="best" />
    <flow id="south_west_right_w0" from="v13" to="-h23" begin="0" end="450" vehsPerHour="196" departSpeed="max" departPos="base" departLane="best" />
    <personFlow id="ped_south_west_straight_w0" begin="0" end="450" personsPerHour="34" departPos="base">
        <personTrip from="v13" to="v11" />
    </personFlow>
    <personFlow id="ped_south_west_left_w0" begin="0" end="450" personsPerHour="23" departPos="base">
        <personTrip from="v13" to="h21" />
    </personFlow>
    <personFlow id="ped_south_west_right_w0" begin="0" end="450" personsPerHour="9" departPos="base">
        <personTrip from="v13" to="-h23" />
    </personFlow>
    <flow id="south_east_straight_w0" from="v23" to="v21" begin="0" end="450" vehsPerHour="232" departSpeed="max" departPos="base" departLane="best" />
    <flow id="south_east_left_w0" from="v23" to="h21" begin="0" end="450" vehsPerHour="91" departSpeed="max" departPos="base" departLane="best" />
    <flow id="south_east_right_w0" from="v23" to="-h23" begin="0" end="450" vehsPerHour="75" departSpeed="max" departPos="base" departLane="best" />
    <personFlow id="ped_south_east_straight_w0" begin="0" end="450" personsPerHour="36" departPos="base">
        <personTrip from="v23" to="v21" />
    </personFlow>
    <personFlow id="ped_south_east_left_w0" begin="0" end="450" personsPerHour="12" departPos="base">
        <personTrip from="v23" to="h21" />
    </personFlow>
    <personFlow id="ped_south_east_right_w0" begin="0" end="450" personsPerHour="22" departPos="base">
        <personTrip from="v23" to="-h23" />
    </personFlow>
    <flow id="west_north_straight_w1" from="-h11" to="-h13" begin="450" end="900" vehsPerHour="310" departSpeed="max" departPos="base" departLane="best" />
    <flow id="west_north_left_w1" from="-h11" to="v11" begin="450" end="900" vehsPerHour="50" departSpeed="max" departPos="base" departLane="best" />
    <flow id="west_north_right_w1" from="-h11" to="-v13" begin="450" end="900" vehsPerHour="246" departSpeed="max" departPos="base" departLane="best" />
    <personFlow id="ped_west_north_straight_w1" begin="450" end="900" personsPerHour="55" departPos="base">
        <personTrip from="-h11" to="-h13" />
    </personFlow>
    <personFlow id="ped_west_north_left_w1" begin="450" end="900" personsPerHour="14" departPos="base">
        <personTrip from="-h11" to="v11" />
    </personFlow>
    <personFlow id="ped_west_north_right_w1" begin="450" end="900" personsPerHour="17" departPos="base">
        <personTrip from="-h11" to="-v13" />
    </personFlow>
    <flow id="west_south_straight_w1" from="-h21" to="-h23" begin="450" end="900" vehsPerHour="310" departSpeed="max" departPos="base" departLane="best" />
    <flow id="west_south_left_w1" from="-h21" to="v11" begin="450" end="900" vehsPerHour="92" departSpeed="max" departPos="base" departLane="best" />
    <flow id="west_south_right_w1" from="-h21" to="-v13" begin="450" end="900" vehsPerHour="41" departSpeed="max" departPos="base" departLane="best" />
    <personFlow id="ped_west_south_straight_w1" begin="450" end="900" personsPerHour="46" departPos="base">
        <personTrip from="-h21" to="-h23" />
    </personFlow>
    <personFlow id="ped_west_south_left_w1" begin="450" end="900" personsPerHour="21" departPos="base">
        <personTrip from="-h21" to="v11" />
    </personFlow>
    <personFlow id="ped_west_south_right_w1" begin="450" end="900" personsPerHour="19" departPos="base">
        <personTrip from="-h21" to="-v13" />
    </personFlow>
    <flow id="east_north_straight_w1" from="h13" to="h11" begin="450" end="900" vehsPerHour="249" departSpeed="max" departPos="base" departLane="best" />
    <flow id="east_north_left_w1" from="h13" to="-v23" begin="450" end="900" vehsPerHour="57" departSpeed="max" departPos="base" departLane="best" />
    <flow id="east_north_right_w1" from="h13" to="v21" begin="450" end="900" vehsPerHour="92" departSpeed="max" departPos="base" departLane="best" />
    <personFlow id="ped_east_north_straight_w1" begin="450" end="900" personsPerHour="40" departPos="base">
        <personTrip from="h13" to="h11" />
    </personFlow>
    <personFlow id="ped_east_north_left_w1" begin="450" end="900" personsPerHour="23" departPos="base">
        <personTrip from="h13" to="-v23" />
    </personFlow>
    <personFlow id="ped_east_north_right_w1" begin="450" end="900" personsPerHour="27" departPos="base">
        <personTrip from="h13" to="v21" />
    </personFlow>
    <flow id="east_south_straight_w1" from="h23" to="h21" begin="450" end="900" vehsPerHour="255" departSpeed="max" departPos="base" departLane="best" />
    <flow id="east_south_left_w1" from="h23" to="-v23" begin="450" end="900" vehsPerHour="104" departSpeed="max" departPos="base" departLane="best" />
    <flow id="east_south_right_w1" from="h23" to="v21" begin="450" end="900" vehsPerHour="36" departSpeed="max" departPos="base" departLane="best" />
    <personFlow id="ped_east_south_straight_w1" begin="450" end="900" personsPerHour="70" departPos="base">
        <personTrip from="h23" to="h21" />
    </personFlow>
    <personFlow id="ped_east_south_left_w1" begin="450" end="900" personsPerHour="21" departPos="base">
        <personTrip from="h23" to="-v23" />
    </personFlow>
    <personFlow id="ped_east_south_right_w1" begin="450" end="900" personsPerHour="10" departPos="base">
        <personTrip from="h23" to="v21" />
    </personFlow>
    <flow id="north_west_straight_w1" from="-v11" to="-v13" begin="450" end="900" vehsPerHour="283" departSpeed="max" departPos="base" departLane="best" />
    <flow id="north_west_left_w1" from="-v11" to="-h13" begin="450" end="900" vehsPerHour="89" departSpeed="max" departPos="base" departLane="best" />
    <flow id="north_west_right_w1" from="-v11" to="h11" begin="450" end="900" vehsPerHour="151" departSpeed="max" departPos="base" departLane="best" />
    <personFlow id="ped_north_west_straight_w1" begin="450" end="900" personsPerHour="60" departPos="base">
        <personTrip from="-v11" to="-v13" />
    </personFlow>
    <personFlow id="ped_north_west_left_w1" begin="450" end="900" personsPerHour="17" departPos="base">
        <personTrip from="-v11" to="-h13" />
    </personFlow>
    <personFlow id="ped_north_west_right_w1" begin="450" end="900" personsPerHour="22" departPos="base">
        <personTrip from="-v11" to="h11" />
    </personFlow>
    <flow id="north_east_straight_w1" from="-v21" to="-v23" begin="450" end="900" vehsPerHour="278" departSpeed="max" departPos="base" departLane="best" />
    <flow id="north_east_left_w1" from="-v21" to="-h13" begin="450" end="900" vehsPerHour="89" departSpeed="max" departPos="base" departLane="best" />
    <flow id="north_east_right_w1" from="-v21" to="h11" begin="450" end="900" vehsPerHour="114" departSpeed="max" departPos="base" departLane="best" />
    <personFlow id="ped_north_east_straight_w1" begin="450" end="900" personsPerHour="61" departPos="base">
        <personTrip from="-v21" to="-v23" />
    </personFlow>
    <personFlow id="ped_north_east_left_w1" begin="450" end="900" personsPerHour="15" departPos="base">
        <personTrip from="-v21" to="-h13" />
    </personFlow>
    <personFlow id="ped_north_east_right_w1" begin="450" end="900" personsPerHour="23" departPos="base">
        <personTrip from="-v21" to="h11" />
    </personFlow>
    <flow id="south_west_straight_w1" from="v13" to="v11" begin="450" end="900" vehsPerHour="242" departSpeed="max" departPos="base" departLane="best" />
    <flow id="south_west_left_w1" from="v13" to="h21" begin="450" end="900" vehsPerHour="56" departSpeed="max" departPos="base" departLane="best" />
    <flow id="south_west_right_w1" from="v13" to="-h23" begin="450" end="900" vehsPerHour="144" departSpeed="max" departPos="base" departLane="best" />
    <personFlow id="ped_south_west_straight_w1" begin="450" end="900" personsPerHour="64" departPos="base">
        <personTrip from="v13" to="v11" />
    </personFlow>
    <personFlow id="ped_south_west_left_w1" begin="450" end="900" personsPerHour="18" departPos="base">
        <personTrip from="v13" to="h21" />
    </personFlow>
    <personFlow id="ped_south_west_right_w1" begin="450" end="900" personsPerHour="17" departPos="base">
        <personTrip from="v13" to="-h23" />
    </personFlow>
    <flow id="south_east_straight_w1" from="v23" to="v21" begin="450" end="900" vehsPerHour="313" departSpeed="max" departPos="base" departLane="best" />
    <flow id="south_east_left_w1" from="v23" to="h21" begin="450" end="900" vehsPerHour="68" departSpeed="max" departPos="base" departLane="best" />
    <flow id="south_east_right_w1" from="v23" to="-h23" begin="450" end="900" vehsPerHour="83" departSpeed="max" departPos="base" departLane="best" />
    <personFlow id="ped_south_east_straight_w1" begin="450" end="900" personsPerHour="74" departPos="base">
        <personTrip from="v23" to="v21" />
    </personFlow>
    <personFlow id="ped_south_east_left_w1" begin="450" end="900" personsPerHour="13" departPos="base">
        <personTrip from="v23" to="h21" />
    </personFlow>
    <personFlow id="ped_south_east_right_w1" begin="450" end="900" personsPerHour="13" departPos="base">
        <personTrip from="v23" to="-h23" />
    </personFlow>
    <flow id="west_north_straight_w2" from="-h11" to="-h13" begin="900" end="1350" vehsPerHour="281" departSpeed="max" departPos="base" departLane="best" />
    <flow id="west_north_left_w2" from="-h11" to="v11" begin="900" end="1350" vehsPerHour="104" departSpeed="max" departPos="base" departLane="best" />
    <flow id="west_north_right_w2" from="-h11" to="-v13" begin="900" end="1350" vehsPerHour="83" departSpeed="max" departPos="base" departLane="best" />
    <personFlow id="ped_west_north_straight_w2" begin="900" end="1350" personsPerHour="57" departPos="base">
        <personTrip from="-h11" to="-h13" />
    </personFlow>
    <personFlow id="ped_west_north_left_w2" begin="900" end="1350" personsPerHour="15" departPos="base">
        <personTrip from="-h11" to="v11" />
    </personFlow>
    <personFlow id="ped_west_north_right_w2" begin="900" end="1350" personsPerHour="14" departPos="base">
        <personTrip from="-h11" to="-v13" />
    </personFlow>
    <flow id="west_south_straight_w2" from="-h21" to="-h23" begin="900" end="1350" vehsPerHour="310" departSpeed="max" departPos="base" departLane="best" />
    <flow id="west_south_left_w2" from="-h21" to="v11" begin="900" end="1350" vehsPerHour="101" departSpeed="max" departPos="base" departLane="best" />
    <flow id="west_south_right_w2" from="-h21" to="-v13" begin="900" end="1350" vehsPerHour="61" departSpeed="max" departPos="base" departLane="best" />
    <personFlow id="ped_west_south_straight_w2" begin="900" end="1350" personsPerHour="52" departPos="base">
        <personTrip from="-h21" to="-h23" />
    </personFlow>
    <personFlow id="ped_west_south_left_w2" begin="900" end="1350" personsPerHour="22" departPos="base">
        <personTrip from="-h21" to="v11" />
    </personFlow>
    <personFlow id="ped_west_south_right_w2" begin="900" end="1350" personsPerHour="36" departPos="base">
        <personTrip from="-h21" to="-v13" />
    </personFlow>
    <flow id="east_north_straight_w2" from="h13" to="h11" begin="900" end="1350" vehsPerHour="272" departSpeed="max" departPos="base" departLane="best" />
    <flow id="east_north_left_w2" from="h13" to="-v23" begin="900" end="1350" vehsPerHour="99" departSpeed="max" departPos="base" departLane="best" />
    <flow id="east_north_right_w2" from="h13" to="v21" begin="900" end="1350" vehsPerHour="63" departSpeed="max" departPos="base" departLane="best" />
    <personFlow id="ped_east_north_straight_w2" begin="900" end="1350" personsPerHour="93" departPos="base">
        <personTrip from="h13" to="h11" />
    </personFlow>
    <personFlow id="ped_east_north_left_w2" begin="900" end="1350" personsPerHour="9" departPos="base">
        <personTrip from="h13" to="-v23" />
    </personFlow>
    <personFlow id="ped_east_north_right_w2" begin="900" end="1350" personsPerHour="32" departPos="base">
        <personTrip from="h13" to="v21" />
    </personFlow>
    <flow id="east_south_straight_w2" from="h23" to="h21" begin="900" end="1350" vehsPerHour="311" departSpeed="max" departPos="base" departLane="best" />
    <flow id="east_south_left_w2" from="h23" to="-v23" begin="900" end="1350" vehsPerHour="64" departSpeed="max" departPos="base" departLane="best" />
    <flow id="east_south_right_w2" from="h23" to="v21" begin="900" end="1350" vehsPerHour="114" departSpeed="max" departPos="base" departLane="best" />
    <personFlow id="ped_east_south_straight_w2" begin="900" end="1350" personsPerHour="80" departPos="base">
        <personTrip from="h23" to="h21" />
    </personFlow>
    <personFlow id="ped_east_south_left_w2" begin="900" end="1350" personsPerHour="30" departPos="base">
        <personTrip from="h23" to="-v23" />
    </personFlow>
    <personFlow id="ped_east_south_right_w2" begin="900" end="1350" personsPerHour="9" departPos="base">
        <personTrip from="h23" to="v21" />
    </personFlow>
    <flow id="north_west_straight_w2" from="-v11" to="-v13" begin="900" end="1350" vehsPerHour="313" departSpeed="max" departPos="base" departLane="best" />
    <flow id="north_west_left_w2" from="-v11" to="-h13" begin="900" end="1350" vehsPerHour="88" departSpeed="max" departPos="base" departLane="best" />
    <flow id="north_west_right_w2" from="-v11" to="h11" begin="900" end="1350" vehsPerHour="79" departSpeed="max" departPos="base" departLane="best" />
    <personFlow id="ped_north_west_straight_w2" begin="900" end="1350" personsPerHour="59" departPos="base">
        <personTrip from="-v11" to="-v13" />
    </personFlow>
    <personFlow id="ped_north_west_left_w2" begin="900" end="1350" personsPerHour="11" departPos="base">
        <personTrip from="-v11" to="-h13" />
    </personFlow>
    <personFlow id="ped_north_west_right_w2" begin="900" end="1350" personsPerHour="32" departPos="base">
        <personTrip from="-v11" to="h11" />
    </personFlow>
    <flow id="north_east_straight_w2" from="-v21" to="-v23" begin="900" end="1350" vehsPerHour="266" departSpeed="max" departPos="base" departLane="best" />
    <flow id="north_east_left_w2" from="-v21" to="-h13" begin="900" end="1350" vehsPerHour="88" departSpeed="max" departPos="base" departLane="best" />
    <flow id="north_east_right_w2" from="-v21" to="h11" begin="900" end="1350" vehsPerHour="88" departSpeed="max" departPos="base" departLane="best" />
    <personFlow id="ped_north_east_straight_w2" begin="900" end="1350" personsPerHour="70" departPos="base">
        <personTrip from="-v21" to="-v23" />
    </personFlow>
    <personFlow id="ped_north_east_left_w2" begin="900" end="1350" personsPerHour="23" departPos="base">
        <personTrip from="-v21" to="-h13" />
    </personFlow>
    <personFlow id="ped_north_east_right_w2" begin="900" end="1350" personsPerHour="27" departPos="base">
        <personTrip from="-v21" to="h11" />
    </personFlow>
    <flow id="south_west_straight_w2" from="v13" to="v11" begin="900" end="1350" vehsPerHour="367" departSpeed="max" departPos="base" departLane="best" />
    <flow id="south_west_left_w2" from="v13" to="h21" begin="900" end="1350" vehsPerHour="63" departSpeed="max" departPos="base" departLane="best" />
    <flow id="south_west_right_w2" from="v13" to="-h23" begin="900" end="1350" vehsPerHour="60" departSpeed="max" departPos="base" departLane="best" />
    <personFlow id="ped_south_west_straight_w2" begin="900" end="1350" personsPerHour="45" departPos="base">
        <personTrip from="v13" to="v11" />
    </personFlow>
    <personFlow id="ped_south_west_left_w2" begin="900" end="1350" personsPerHour="24" departPos="base">
        <personTrip from="v13" to="h21" />
    </personFlow>
    <personFlow id="ped_south_west_right_w2" begin="900" end="1350" personsPerHour="14" departPos="base">
        <personTrip from="v13" to="-h23" />
    </personFlow>
    <flow id="south_east_straight_w2" from="v23" to="v21" begin="900" end="1350" vehsPerHour="227" departSpeed="max" departPos="base" departLane="best" />
    <flow id="south_east_left_w2" from="v23" to="h21" begin="900" end="1350" vehsPerHour="89" departSpeed="max" departPos="base" departLane="best" />
    <flow id="south_east_right_w2" from="v23" to="-h23" begin="900" end="1350" vehsPerHour="96" departSpeed="max" departPos="base" departLane="best" />
    <personFlow id="ped_south_east_straight_w2" begin="900" end="1350" personsPerHour="88" departPos="base">
        <personTrip from="v23" to="v21" />
    </personFlow>
    <personFlow id="ped_south_east_left_w2" begin="900" end="1350" personsPerHour="5" departPos="base">
        <personTrip from="v23" to="h21" />
    </personFlow>
    <personFlow id="ped_south_east_right_w2" begin="900" end="1350" personsPerHour="11" departPos="base">
        <personTrip from="v23" to="-h23" />
    </personFlow>
    <flow id="west_north_straight_w3" from="-h11" to="-h13" begin="1350" end="1800" vehsPerHour="245" departSpeed="max" departPos="base" departLane="best" />
    <flow id="west_north_left_w3" from="-h11" to="v11" begin="1350" end="1800" vehsPerHour="73" departSpeed="max" departPos="base" departLane="best" />
    <flow id="west_north_right_w3" from="-h11" to="-v13" begin="1350" end="1800" vehsPerHour="50" departSpeed="max" departPos="base" departLane="best" />
    <personFlow id="ped_west_north_straight_w3" begin="1350" end="1800" personsPerHour="57" departPos="base">
        <personTrip from="-h11" to="-h13" />
    </personFlow>
    <personFlow id="ped_west_north_left_w3" begin="1350" end="1800" personsPerHour="26" departPos="base">
        <personTrip from="-h11" to="v11" />
    </personFlow>
    <personFlow id="ped_west_north_right_w3" begin="1350" end="1800" personsPerHour="16" departPos="base">
        <personTrip from="-h11" to="-v13" />
    </personFlow>
    <flow id="west_south_straight_w3" from="-h21" to="-h23" begin="1350" end="1800" vehsPerHour="153" departSpeed="max" departPos="base" departLane="best" />
    <flow id="west_south_left_w3" from="-h21" to="v11" begin="1350" end="1800" vehsPerHour="122" departSpeed="max" departPos="base" departLane="best" />
    <flow id="west_south_right_w3" from="-h21" to="-v13" begin="1350" end="1800" vehsPerHour="72" departSpeed="max" departPos="base" departLane="best" />
    <personFlow id="ped_west_south_straight_w3" begin="1350" end="1800" personsPerHour="66" departPos="base">
        <personTrip from="-h21" to="-h23" />
    </personFlow>
    <personFlow id="ped_west_south_left_w3" begin="1350" end="1800" personsPerHour="5" departPos="base">
        <personTrip from="-h21" to="v11" />
    </personFlow>
    <personFlow id="ped_west_south_right_w3" begin="1350" end="1800" personsPerHour="24" departPos="base">
        <personTrip from="-h21" to="-v13" />
    </personFlow>
    <flow id="east_north_straight_w3" from="h13" to="h11" begin="1350" end="1800" vehsPerHour="380" departSpeed="max" departPos="base" departLane="best" />
    <flow id="east_north_left_w3" from="h13" to="-v23" begin="1350" end="1800" vehsPerHour="29" departSpeed="max" departPos="base" departLane="best" />
    <flow id="east_north_right_w3" from="h13" to="v21" begin="1350" end="1800" vehsPerHour="89" departSpeed="max" departPos="base" departLane="best" />
    <personFlow id="ped_east_north_straight_w3" begin="1350" end="1800" personsPerHour="46" departPos="base">
        <personTrip from="h13" to="h11" />
    </personFlow>
    <personFlow id="ped_east_north_left_w3" begin="1350" end="1800" personsPerHour="17" departPos="base">
        <personTrip from="h13" to="-v23" />
    </personFlow>
    <personFlow id="ped_east_north_right_w3" begin="1350" end="1800" personsPerHour="16" departPos="base">
        <personTrip from="h13" to="v21" />
    </personFlow>
    <flow id="east_south_straight_w3" from="h23" to="h21" begin="1350" end="1800" vehsPerHour="227" departSpeed="max" departPos="base" departLane="best" />
    <flow id="east_south_left_w3" from="h23" to="-v23" begin="1350" end="1800" vehsPerHour="91" departSpeed="max" departPos="base" departLane="best" />
    <flow id="east_south_right_w3" from="h23" to="v21" begin="1350" end="1800" vehsPerHour="53" departSpeed="max" departPos="base" departLane="best" />
    <personFlow id="ped_east_south_straight_w3" begin="1350" end="1800" personsPerHour="65" departPos="base">
        <personTrip from="h23" to="h21" />
    </personFlow>
    <personFlow id="ped_east_south_left_w3" begin="1350" end="1800" personsPerHour="25" departPos="base">
        <personTrip from="h23" to="-v23" />
    </personFlow>
    <personFlow id="ped_east_south_right_w3" begin="1350" end="1800" personsPerHour="15" departPos="base">
        <personTrip from="h23" to="v21" />
    </personFlow>
    <flow id="north_west_straight_w3" from="-v11" to="-v13" begin="1350" end="1800" vehsPerHour="228" departSpeed="max" departPos="base" departLane="best" />
    <flow id="north_west_left_w3" from="-v11" to="-h13" begin="1350" end="1800" vehsPerHour="49" departSpeed="max" departPos="base" departLane="best" />
    <flow id="north_west_right_w3" from="-v11" to="h11" begin="1350" end="1800" vehsPerHour="116" departSpeed="max" departPos="base" departLane="best" />
    <personFlow id="ped_north_west_straight_w3" begin="1350" end="1800" personsPerHour="44" departPos="base">
        <personTrip from="-v11" to="-v13" />
    </personFlow>
    <personFlow id="ped_north_west_left_w3" begin="1350" end="1800" personsPerHour="13" departPos="base">
        <personTrip from="-v11" to="-h13" />
    </personFlow>
    <personFlow id="ped_north_west_right_w3" begin="1350" end="1800" personsPerHour="29" departPos="base">
        <personTrip from="-v11" to="h11" />
    </personFlow>
    <flow id="north_east_straight_w3" from="-v21" to="-v23" begin="1350" end="1800" vehsPerHour="257" departSpeed="max" departPos="base" departLane="best" />
    <flow id="north_east_left_w3" from="-v21" to="-h13" begin="1350" end="1800" vehsPerHour="94" departSpeed="max" departPos="base" departLane="best" />
    <flow id="north_east_right_w3" from="-v21" to="h11" begin="1350" end="1800" vehsPerHour="53" departSpeed="max" departPos="base" departLane="best" />
    <personFlow id="ped_north_east_straight_w3" begin="1350" end="1800" personsPerHour="49" departPos="base">
        <personTrip from="-v21" to="-v23" />
    </personFlow>
    <personFlow id="ped_north_east_left_w3" begin="1350" end="1800" personsPerHour="10" departPos="base">
        <personTrip from="-v21" to="-h13" />
    </personFlow>
    <personFlow id="ped_north_east_right_w3" begin="1350" end="1800" personsPerHour="19" departPos="base">
        <personTrip from="-v21" to="h11" />
    </personFlow>
    <flow id="south_west_straight_w3" from="v13" to="v11" begin="1350" end="1800" vehsPerHour="253" departSpeed="max" departPos="base" departLane="best" />
    <flow id="south_west_left_w3" from="v13" to="h21" begin="1350" end="1800" vehsPerHour="74" departSpeed="max" departPos="base" departLane="best" />
    <flow id="south_west_right_w3" from="v13" to="-h23" begin="1350" end="1800" vehsPerHour="87" departSpeed="max" departPos="base" departLane="best" />
    <personFlow id="ped_south_west_straight_w3" begin="1350" end="1800" personsPerHour="46" departPos="base">
        <personTrip from="v13" to="v11" />
    </personFlow>
    <personFlow id="ped_south_west_left_w3" begin="1350" end="1800" personsPerHour="12" departPos="base">
        <personTrip from="v13" to="h21" />
    </personFlow>
    <personFlow id="ped_south_west_right_w3" begin="1350" end="1800" personsPerHour="22" departPos="base">
        <personTrip from="v13" to="-h23" />
    </personFlow>
    <flow id="south_east_straight_w3" from="v23" to="v21" begin="1350" end="1800" vehsPerHour="221" departSpeed="max" departPos="base" departLane="best" />